  248
CERIA 110-LY7-TEOS-2CH3                 
 CE  1.907433647568E+00  2.716716416865E+00  4.262374343813E+00
 CE -1.880897881990E+00 -2.702977005976E+00  4.259373977895E+00
 CE  1.891999869093E+00 -2.702965370712E+00  4.257875540128E+00
 CE -1.912977866603E+00  2.719191471793E+00  4.264805493082E+00
 CE  1.855262841658E+00  8.148807080204E+00  4.250698954520E+00
 CE -1.897026652202E+00  8.144103344740E+00  4.255220685623E+00
 CE  5.748568454963E+00  2.691586188622E+00  4.264573551118E+00
 CE -5.661118462809E+00 -2.691433516962E+00  4.301566131827E+00
 CE  5.678219931331E+00 -2.715836107340E+00  4.297193593164E+00
 CE -5.735753799457E+00  2.695190099378E+00  4.258125076848E+00
 CE  5.579069760719E+00  8.196988840464E+00  4.306872615595E+00
 CE -5.639899896271E+00  8.198580999298E+00  4.382726690617E+00
 O   4.353434825000E-03  3.980824075771E+00  4.378300823663E+00
 O   4.271839407000E-03 -3.963738226178E+00  4.394348477481E+00
 O   2.145756691100E-02 -6.846089629584E+00  4.374889128574E+00
 O   2.069862812500E-02  6.865820534125E+00  4.379769350738E+00
 O   4.542041695000E-03 -1.429131391103E+00  4.378888652192E+00
 O   1.441629940000E-03  1.445859506595E+00  4.378389409534E+00
 O   3.836048808297E+00  3.985254357974E+00  4.378156948254E+00
 O  -3.800404356891E+00 -3.935304886052E+00  4.293481807434E+00
 O   3.824877734939E+00 -3.962684108644E+00  4.300028196521E+00
 O  -3.864504501633E+00  3.972850710218E+00  4.399389676419E+00
 O   3.762186061128E+00 -6.833914630235E+00  4.355151757136E+00
 O  -3.707262428482E+00  6.859930247678E+00  4.384588821357E+00
 O   3.798573048762E+00  6.899874764268E+00  4.410156636063E+00
 O  -3.689500829097E+00 -6.796412851611E+00  4.377674558682E+00
 O   3.835370373326E+00 -1.445604918954E+00  4.428108038672E+00
 O  -3.827079733255E+00  1.436202481910E+00  4.370076591922E+00
 O   3.847415223496E+00  1.442393953196E+00  4.376748597749E+00
 O  -3.853206725144E+00 -1.432678968653E+00  4.436948690362E+00
 O   7.692433680105E+00  3.938035370888E+00  4.333721907211E+00
 O   7.556554802101E+00 -4.371439646988E+00  4.776085977287E+00
 O   7.583865121406E+00  9.492690536052E+00  4.420672751971E+00
 O   7.679893551082E+00 -1.675236844185E+00  4.324146000617E+00
 O   7.658752284664E+00  1.361562864628E+00  4.396754678904E+00
 CE  1.029438051000E-03  1.478032716100E-02  2.582743034147E+00
 CE -1.669959728000E-03  5.425019978525E+00  2.581351708716E+00
 CE -3.626261856000E-03 -5.418789378199E+00  2.566226946997E+00
 CE  3.829241182389E+00  4.347553849000E-03  2.591451282971E+00
 CE -3.822790182079E+00  9.056411237000E-03  2.588465530996E+00
 CE  3.832999057299E+00  5.419385717823E+00  2.599028778441E+00
 CE -3.816195094437E+00 -5.431140110733E+00  2.585012259402E+00
 CE  3.807828830931E+00 -5.408494490169E+00  2.551556964732E+00
 CE -3.836055034312E+00  5.438577714892E+00  2.615821083327E+00
 CE  7.672462998813E+00 -1.755240581900E-02  2.601567761565E+00
 CE  7.677958407946E+00  5.406966325302E+00  2.579168122525E+00
 CE  7.669613296812E+00 -5.445843305556E+00  2.510992880798E+00
 O   1.918269199601E+00  1.367553680941E+00  2.543491379797E+00
 O  -1.925459882839E+00 -1.356436021568E+00  2.556658207978E+00
 O   1.924440795876E+00 -1.357528466853E+00  2.550474972686E+00
 O  -1.911955473462E+00  1.370419327226E+00  2.540036899102E+00
 O   1.919537968042E+00  6.785790314220E+00  2.535494967569E+00
 O  -1.892768543118E+00 -6.777085387170E+00  2.503620403403E+00
 O   1.905831863442E+00 -6.777259664733E+00  2.513397900568E+00
 O  -1.889378627956E+00  6.785151309338E+00  2.511440642028E+00
 O   1.897655110047E+00 -4.051073698384E+00  2.528950197734E+00
 O  -1.925638756625E+00  4.060217514548E+00  2.556136313745E+00
 O   1.924485638933E+00  4.060341555502E+00  2.545396999293E+00
 O  -1.889185120853E+00 -4.048505464317E+00  2.532181507226E+00
 O   5.759413995601E+00  1.362016935133E+00  2.542430688355E+00
 O  -5.719416134042E+00 -1.352165038194E+00  2.570177517974E+00
 O   5.728665395742E+00 -1.356123028930E+00  2.574766063770E+00
 O  -5.758099543502E+00  1.355451040286E+00  2.547074916360E+00
 O   5.798384093816E+00  6.791138340146E+00  2.618089081559E+00
 O  -5.758607825077E+00 -6.743296794751E+00  2.561579994126E+00
 O   5.721101871359E+00 -6.777883951884E+00  2.551051553314E+00
 O  -5.812794341976E+00  6.762655044157E+00  2.602843732242E+00
 O   5.829695028224E+00 -4.039586707336E+00  2.593485285839E+00
 O  -5.749673572985E+00  4.050203096472E+00  2.537310145587E+00
 O   5.754858572609E+00  4.062613040520E+00  2.550945575382E+00
 O  -5.860620227792E+00 -4.028026749682E+00  2.639869400143E+00
 CE  1.918913489299E+00  2.714692676542E+00  6.435786814510E-01
 CE -1.919504405679E+00 -2.710291501069E+00  6.432455145580E-01
 CE  1.913196862516E+00 -2.705868901586E+00  6.359153933210E-01
 CE -1.919838001310E+00  2.720750040694E+00  6.462210338340E-01
 CE  1.918266403689E+00  8.137703545721E+00  6.354767734920E-01
 CE -1.913544069626E+00  8.137479253971E+00  6.419042016620E-01
 CE  5.754490712423E+00  2.707818672819E+00  6.474209928040E-01
 CE -5.754445913926E+00 -2.709084248760E+00  6.625198146140E-01
 CE  5.756135498382E+00 -2.706746028039E+00  6.542090127240E-01
 CE -5.750136340832E+00  2.710585567916E+00  6.480917090430E-01
 CE  5.748883827355E+00  8.128172582516E+00  6.571533367880E-01
 CE -5.750555079760E+00  8.127664053106E+00  6.950379283550E-01
 O  -1.595040574000E-03  4.059866028923E+00  7.009284637380E-01
 O  -3.817462281000E-03 -4.046331027857E+00  6.874504674460E-01
 O   4.088404046000E-03 -6.790902414398E+00  6.850084690350E-01
 O   1.340120485100E-02  6.786161028710E+00  6.825251362990E-01
 O  -3.369975097000E-03 -1.354749127514E+00  7.067238227940E-01
 O   2.448106636000E-03  1.370226506959E+00  6.957863517950E-01
 O   3.839907335669E+00  4.060662959015E+00  7.067520739060E-01
 O  -3.875032647088E+00 -4.055477639815E+00  7.449103110090E-01
 O   3.861660461092E+00 -4.049931105289E+00  7.278588189740E-01
 O  -3.833674960387E+00  4.060951598295E+00  6.988716950930E-01
 O   3.842146588394E+00 -6.791679981585E+00  6.993259815320E-01
 O  -3.857403520682E+00  6.788319442063E+00  7.256829142260E-01
 O   3.863382315004E+00  6.779781196374E+00  7.271535000860E-01
 O  -3.844674212943E+00 -6.795922016718E+00  7.085941066030E-01
 O   3.839606605217E+00 -1.358862688914E+00  7.014905747730E-01
 O  -3.837130603256E+00  1.364706130006E+00  7.029734643670E-01
 O   3.838252946280E+00  1.364836582329E+00  7.026627345460E-01
 O  -3.836110692744E+00 -1.361151804567E+00  7.000983875390E-01
 O   7.670172053289E+00  4.061156456028E+00  7.136542024230E-01
 O   7.680464545597E+00 -4.067281261851E+00  6.871137324230E-01
 O   7.662439169153E+00 -6.802463135655E+00  7.157428620810E-01
 O   7.658107342561E+00  6.768055356001E+00  7.181620088120E-01
 O   7.673121449717E+00 -1.365599998729E+00  7.317629365310E-01
 O   7.672507300067E+00  1.351773382619E+00  7.079194284750E-01
 CE -7.623357630000E-04  4.003375950000E-04 -1.143923567944E+00
 CE  2.087629297000E-03  5.429761146818E+00 -1.144369796861E+00
 CE -1.018313013000E-03 -5.424982293094E+00 -1.147475657636E+00
 CE  3.834704190693E+00 -2.605826274000E-03 -1.141473110653E+00
 CE -3.833840532239E+00 -1.692094061000E-03 -1.139524781917E+00
 CE  3.837416238711E+00  5.426003948925E+00 -1.139493539150E+00
 CE -3.843856911018E+00 -5.429781831945E+00 -1.133090217255E+00
 CE  3.839986946051E+00 -5.425209407521E+00 -1.149753545841E+00
 CE -3.837873013097E+00  5.430280145949E+00 -1.130253141885E+00
 CE  7.672272019430E+00 -1.255399596000E-03 -1.136462819996E+00
 CE  7.672071202412E+00  5.427728985114E+00 -1.139630664977E+00
 CE  7.673525514595E+00 -5.430407618879E+00 -1.154939205025E+00
 O   1.921572715072E+00  1.345792595980E+00 -1.159626026019E+00
 O  -1.917321761940E+00 -1.341213715385E+00 -1.158068217560E+00
 O   1.915680949353E+00 -1.339323128935E+00 -1.158080098228E+00
 O  -1.922133629381E+00  1.346088321507E+00 -1.158512170021E+00
 O   1.935689042587E+00  6.765069999278E+00 -1.158556603018E+00
 O  -1.939696453918E+00 -6.763135463496E+00 -1.151729149434E+00
 O   1.926690184831E+00 -6.761344506666E+00 -1.147046240139E+00
 O  -1.927010425121E+00  6.764352739308E+00 -1.156087736477E+00
 O   1.934417426828E+00 -4.082108997075E+00 -1.134089849567E+00
 O  -1.918600779310E+00  4.080992476054E+00 -1.160847467108E+00
 O   1.921293688523E+00  4.079936677351E+00 -1.158026771514E+00
 O  -1.954127813780E+00 -4.079654042229E+00 -1.135003076457E+00
 O   5.757311095625E+00  1.344374142453E+00 -1.157790730027E+00
 O  -5.761310456342E+00 -1.347467049843E+00 -1.142752023978E+00
 O   5.763301508942E+00 -1.344877906395E+00 -1.145535531165E+00
 O  -5.754630972407E+00  1.343170006039E+00 -1.159312644648E+00
 O   5.754281134491E+00  6.768866254120E+00 -1.152332639115E+00
 O  -5.762871834302E+00 -6.775052349951E+00 -1.136918192551E+00
 O   5.772231447919E+00 -6.772859518989E+00 -1.141015436573E+00
 O  -5.760191764649E+00  6.770800536578E+00 -1.140298464173E+00
 O   5.767381298933E+00 -4.078073340944E+00 -1.142381737255E+00
 O  -5.758836256215E+00  4.078450429002E+00 -1.156882369677E+00
 O   5.758230935139E+00  4.077722093921E+00 -1.155762188226E+00
 O  -5.751427610761E+00 -4.074117390385E+00 -1.149338824530E+00
 CE  1.918243769682E+00  2.712795171508E+00 -3.057556270450E+00
 CE -1.915495794477E+00 -2.725624058541E+00 -3.063818221402E+00
 CE  1.917599081605E+00 -2.731663982663E+00 -3.071640023673E+00
 CE -1.917858801512E+00  2.714027477686E+00 -3.055540827373E+00
 CE  1.918113030691E+00  8.156782091384E+00 -3.072026248006E+00
 CE -1.915051783053E+00  8.149691164800E+00 -3.063828992347E+00
 CE  5.753204020165E+00  2.712383049989E+00 -3.056409980782E+00
 CE -5.752304810006E+00 -2.716077714052E+00 -3.054202525939E+00
 CE  5.749695887796E+00 -2.722091737454E+00 -3.061096060143E+00
 CE -5.752939727989E+00  2.713290959934E+00 -3.055425629285E+00
 CE  5.748813741252E+00  8.145460031465E+00 -3.061767158745E+00
 CE -5.752205876928E+00  8.138650514461E+00 -3.046363300100E+00
 O  -3.572324987000E-03 -1.297581809835E+00 -3.045900706428E+00
 O  -6.293137360000E-04  1.326823255380E+00 -3.037396730646E+00
 O   6.781693840000E-04  4.100070751742E+00 -3.039617768193E+00
 O  -5.936231656000E-03 -4.072299228760E+00 -2.981212978198E+00
 O  -4.444477362000E-03 -6.773661768999E+00 -2.987757338950E+00
 O  -2.421503640000E-03  6.725653649680E+00 -3.040707658652E+00
 O   3.843017664266E+00 -1.302250275069E+00 -3.039263667387E+00
 O  -3.837298176805E+00  1.319966607260E+00 -3.039781982500E+00
 O   3.838026798309E+00  1.323062248772E+00 -3.038701415501E+00
 O  -3.842859943664E+00 -1.311604519730E+00 -3.037311578543E+00
 O   3.838317022434E+00  4.099103511783E+00 -3.036223833261E+00
 O  -3.843231781265E+00 -4.104985333653E+00 -3.031360029491E+00
 O   3.843498732929E+00 -4.081381156681E+00 -2.995953798450E+00
 O  -3.838392255817E+00  4.104943852489E+00 -3.037748220795E+00
 O   3.845776654750E+00 -6.767738510192E+00 -2.995019282268E+00
 O  -3.844317305240E+00  6.735844055310E+00 -3.037399621452E+00
 O   3.843919436361E+00  6.722809058088E+00 -3.045225811077E+00
 O  -3.847093501689E+00 -6.745095085454E+00 -3.027254506289E+00
 O   7.675158385195E+00 -1.311547125589E+00 -3.037913318844E+00
 O   7.672167628942E+00  1.318985229137E+00 -3.038277791664E+00
 O   7.671744835138E+00  4.104474966656E+00 -3.039665343831E+00
 O   7.676005184487E+00 -4.105416483253E+00 -3.032142846530E+00
 O   7.676464274713E+00 -6.745815520343E+00 -3.033335096049E+00
 O   7.675335003942E+00  6.735540080138E+00 -3.037329354557E+00
 CE  0.000000000000E+00  0.000000000000E+00 -4.794687825205E+00
 CE  0.000000000000E+00  5.424570039800E+00 -4.794687825205E+00
 CE  0.000000000000E+00 -5.424570039800E+00 -4.794687825205E+00
 CE  3.835750260160E+00  0.000000000000E+00 -4.794687825205E+00
 CE -3.835750260160E+00  0.000000000000E+00 -4.794687825205E+00
 CE  3.835750260160E+00  5.424570039800E+00 -4.794687825205E+00
 CE -3.835750260160E+00 -5.424570039800E+00 -4.794687825205E+00
 CE  3.835750260160E+00 -5.424570039800E+00 -4.794687825205E+00
 CE -3.835750260160E+00  5.424570039800E+00 -4.794687825205E+00
 CE  7.671500520300E+00  0.000000000000E+00 -4.794687825205E+00
 CE  7.671500520300E+00  5.424570039800E+00 -4.794687825205E+00
 CE  7.671500520300E+00 -5.424570039800E+00 -4.794687825205E+00
 O   1.917875130080E+00  1.356142509950E+00 -4.794687825205E+00
 O  -1.917875130080E+00 -1.356142509950E+00 -4.794687825205E+00
 O   1.917875130080E+00 -1.356142509950E+00 -4.794687825205E+00
 O  -1.917875130080E+00  1.356142509950E+00 -4.794687825205E+00
 O   1.917875130080E+00  6.780712549750E+00 -4.794687825205E+00
 O  -1.917875130080E+00 -6.780712549750E+00 -4.794687825205E+00
 O   1.917875130080E+00 -6.780712549750E+00 -4.794687825205E+00
 O  -1.917875130080E+00  6.780712549750E+00 -4.794687825205E+00
 O   1.917875130080E+00 -4.068427529850E+00 -4.794687825205E+00
 O  -1.917875130080E+00  4.068427529850E+00 -4.794687825205E+00
 O   1.917875130080E+00  4.068427529850E+00 -4.794687825205E+00
 O  -1.917875130080E+00 -4.068427529850E+00 -4.794687825205E+00
 O   5.753625390240E+00  1.356142509950E+00 -4.794687825205E+00
 O  -5.753625390240E+00 -1.356142509950E+00 -4.794687825205E+00
 O   5.753625390240E+00 -1.356142509950E+00 -4.794687825205E+00
 O  -5.753625390240E+00  1.356142509950E+00 -4.794687825205E+00
 O   5.753625390240E+00  6.780712549750E+00 -4.794687825205E+00
 O  -5.753625390240E+00 -6.780712549750E+00 -4.794687825205E+00
 O   5.753625390240E+00 -6.780712549750E+00 -4.794687825205E+00
 O  -5.753625390240E+00  6.780712549750E+00 -4.794687825205E+00
 O   5.753625390240E+00 -4.068427529850E+00 -4.794687825205E+00
 O  -5.753625390240E+00  4.068427529850E+00 -4.794687825205E+00
 O   5.753625390240E+00  4.068427529850E+00 -4.794687825205E+00
 O  -5.753625390240E+00 -4.068427529850E+00 -4.794687825205E+00
 SI  7.547225887113E+00  1.058938950123E+01  5.811713445535E+00
 O   7.451755422478E+00  1.155181187088E+01  7.266943804858E+00
 O   9.020811809248E+00  9.811982473720E+00  6.277105747266E+00
 O   7.641858819776E+00  2.305361436121E+01  4.690974010353E+00
 O   6.137673120866E+00  9.659612926104E+00  6.257194038207E+00
 C   7.801846457280E+00  1.341787438178E+01  8.717016777109E+00
 C   4.301791002239E+00  1.109605667194E+01  6.975057348596E+00
 C   1.061238424459E+01  1.150383948227E+01  6.983466435596E+00
 C   6.157190047846E+00  2.186917378755E+01  6.190188297643E+00
 C   7.401438636480E+00  1.294032924086E+01  7.331053496494E+00
 C   9.910720126848E+00  1.020313714496E+01  7.319287173740E+00
 C   7.563851700649E+00  2.244044064425E+01  5.960030509935E+00
 C   5.191903035928E+00  9.912178041709E+00  7.297167095665E+00
 H   3.607833310978E+00  1.129266901506E+01  7.805477366642E+00
 H   1.134983517353E+01  1.176880978291E+01  7.754137711203E+00
 H   5.726376666668E+00  1.004331498257E+01  8.245715060137E+00
 H   4.577685795483E+00  8.996000001870E+00  7.368814921244E+00
 H   9.363121344093E+00  1.026099886069E+01  8.268673838726E+00
 H   1.066001426628E+01  9.396352935151E+00  7.394842056850E+00
 H   7.741591305148E+00  1.451212290146E+01  8.785347036185E+00
 H   6.165601822726E+00  2.097219561066E+01  6.824381156566E+00
 H   7.149643185296E+00  1.298131370335E+01  9.480143422684E+00
 H   8.829898583122E+00  1.310999907313E+01  8.937162735674E+00
 H   5.482161693640E+00  2.259416112238E+01  6.667258613908E+00
 H   5.693052170166E+00  2.161913623878E+01  5.234630847117E+00
 H   8.037866375680E+00  1.342865725442E+01  6.571976856893E+00
 H   6.377322046772E+00  1.332957440527E+01  7.102857810833E+00
 H   8.310854161796E+00  2.163722015271E+01  6.024166187725E+00
 H   2.314091218807E+01  2.319759701914E+01  6.738264620818E+00
 H   3.757063311264E+00  1.091985727068E+01  6.049170467965E+00
 H   4.910666427399E+00  1.199481318461E+01  6.830937106497E+00
 H   9.879558474729E+00  1.232223551541E+01  6.946080041188E+00
 H   1.111110634824E+01  1.142071212809E+01  6.014258303612E+00
  248
CERIA 110-LY7-TEOS-2CH3                 
 CE  1.907433647568E+00  2.716716416865E+00  4.262374343813E+00
 CE -1.880897881990E+00 -2.702977005976E+00  4.259373977895E+00
 CE  1.891999869093E+00 -2.702965370712E+00  4.257875540128E+00
 CE -1.912977866604E+00  2.719191471793E+00  4.264805493082E+00
 CE  1.855262841659E+00  8.148807080203E+00  4.250698954520E+00
 CE -1.897026652202E+00  8.144103344740E+00  4.255220685623E+00
 CE  5.748568454963E+00  2.691586188622E+00  4.264573551118E+00
 CE -5.661118462809E+00 -2.691433516962E+00  4.301566131827E+00
 CE  5.678219931331E+00 -2.715836107340E+00  4.297193593164E+00
 CE -5.735753799457E+00  2.695190099378E+00  4.258125076848E+00
 CE  5.579069760719E+00  8.196988840464E+00  4.306872615595E+00
 CE -5.639899896270E+00  8.198580999298E+00  4.382726690617E+00
 O   4.353434824987E-03  3.980824075771E+00  4.378300823663E+00
 O   4.271839407461E-03 -3.963738226178E+00  4.394348477481E+00
 O   2.145756691068E-02 -6.846089629584E+00  4.374889128574E+00
 O   2.069862812481E-02  6.865820534125E+00  4.379769350738E+00
 O   4.542041695337E-03 -1.429131391103E+00  4.378888652192E+00
 O   1.441629939940E-03  1.445859506595E+00  4.378389409534E+00
 O   3.836048808297E+00  3.985254357974E+00  4.378156948254E+00
 O  -3.800404356891E+00 -3.935304886051E+00  4.293481807434E+00
 O   3.824877734939E+00 -3.962684108644E+00  4.300028196521E+00
 O  -3.864504501633E+00  3.972850710218E+00  4.399389676419E+00
 O   3.762186061128E+00 -6.833914630235E+00  4.355151757136E+00
 O  -3.707262428482E+00  6.859930247678E+00  4.384588821357E+00
 O   3.798573048762E+00  6.899874764269E+00  4.410156636063E+00
 O  -3.689500829097E+00 -6.796412851611E+00  4.377674558682E+00
 O   3.835370373326E+00 -1.445604918953E+00  4.428108038672E+00
 O  -3.827079733255E+00  1.436202481910E+00  4.370076591922E+00
 O   3.847415223496E+00  1.442393953196E+00  4.376748597749E+00
 O  -3.853206725144E+00 -1.432678968653E+00  4.436948690362E+00
 O   7.692433680105E+00  3.938035370888E+00  4.333721907211E+00
 O   7.556554802101E+00 -4.371439646988E+00  4.776085977287E+00
 O   7.583865121406E+00  9.492690536052E+00  4.420672751971E+00
 O   7.679893551082E+00 -1.675236844185E+00  4.324146000617E+00
 O   7.658752284664E+00  1.361562864628E+00  4.396754678904E+00
 CE  1.029438051287E-03  1.478032716060E-02  2.582743034147E+00
 CE -1.669959727943E-03  5.425019978525E+00  2.581351708716E+00
 CE -3.626261855998E-03 -5.418789378199E+00  2.566226946997E+00
 CE  3.829241182389E+00  4.347553849434E-03  2.591451282971E+00
 CE -3.822790182079E+00  9.056411237089E-03  2.588465530996E+00
 CE  3.832999057299E+00  5.419385717823E+00  2.599028778441E+00
 CE -3.816195094437E+00 -5.431140110733E+00  2.585012259402E+00
 CE  3.807828830931E+00 -5.408494490169E+00  2.551556964732E+00
 CE -3.836055034312E+00  5.438577714892E+00  2.615821083327E+00
 CE  7.672462998813E+00 -1.755240581935E-02  2.601567761565E+00
 CE  7.677958407946E+00  5.406966325302E+00  2.579168122525E+00
 CE  7.669613296812E+00 -5.445843305556E+00  2.510992880798E+00
 O   1.918269199601E+00  1.367553680941E+00  2.543491379797E+00
 O  -1.925459882839E+00 -1.356436021568E+00  2.556658207978E+00
 O   1.924440795876E+00 -1.357528466853E+00  2.550474972686E+00
 O  -1.911955473462E+00  1.370419327227E+00  2.540036899102E+00
 O   1.919537968042E+00  6.785790314220E+00  2.535494967569E+00
 O  -1.892768543119E+00 -6.777085387170E+00  2.503620403403E+00
 O   1.905831863442E+00 -6.777259664733E+00  2.513397900568E+00
 O  -1.889378627956E+00  6.785151309338E+00  2.511440642028E+00
 O   1.897655110047E+00 -4.051073698384E+00  2.528950197734E+00
 O  -1.925638756625E+00  4.060217514548E+00  2.556136313745E+00
 O   1.924485638933E+00  4.060341555502E+00  2.545396999293E+00
 O  -1.889185120853E+00 -4.048505464317E+00  2.532181507226E+00
 O   5.759413995602E+00  1.362016935133E+00  2.542430688355E+00
 O  -5.719416134042E+00 -1.352165038194E+00  2.570177517974E+00
 O   5.728665395742E+00 -1.356123028930E+00  2.574766063770E+00
 O  -5.758099543502E+00  1.355451040286E+00  2.547074916360E+00
 O   5.798384093816E+00  6.791138340146E+00  2.618089081559E+00
 O  -5.758607825077E+00 -6.743296794751E+00  2.561579994126E+00
 O   5.721101871359E+00 -6.777883951884E+00  2.551051553314E+00
 O  -5.812794341976E+00  6.762655044157E+00  2.602843732242E+00
 O   5.829695028224E+00 -4.039586707336E+00  2.593485285839E+00
 O  -5.749673572985E+00  4.050203096472E+00  2.537310145587E+00
 O   5.754858572608E+00  4.062613040520E+00  2.550945575382E+00
 O  -5.860620227792E+00 -4.028026749682E+00  2.639869400143E+00
 CE  1.918913489299E+00  2.714692676542E+00  6.435786814511E-01
 CE -1.919504405679E+00 -2.710291501069E+00  6.432455145583E-01
 CE  1.913196862516E+00 -2.705868901586E+00  6.359153933212E-01
 CE -1.919838001310E+00  2.720750040694E+00  6.462210338338E-01
 CE  1.918266403689E+00  8.137703545721E+00  6.354767734922E-01
 CE -1.913544069626E+00  8.137479253971E+00  6.419042016621E-01
 CE  5.754490712423E+00  2.707818672819E+00  6.474209928039E-01
 CE -5.754445913926E+00 -2.709084248760E+00  6.625198146138E-01
 CE  5.756135498381E+00 -2.706746028039E+00  6.542090127236E-01
 CE -5.750136340832E+00  2.710585567916E+00  6.480917090431E-01
 CE  5.748883827355E+00  8.128172582516E+00  6.571533367884E-01
 CE -5.750555079760E+00  8.127664053106E+00  6.950379283555E-01
 O  -1.595040574012E-03  4.059866028922E+00  7.009284637381E-01
 O  -3.817462281403E-03 -4.046331027857E+00  6.874504674458E-01
 O   4.088404045666E-03 -6.790902414398E+00  6.850084690355E-01
 O   1.340120485090E-02  6.786161028710E+00  6.825251362991E-01
 O  -3.369975096817E-03 -1.354749127514E+00  7.067238227944E-01
 O   2.448106635694E-03  1.370226506959E+00  6.957863517953E-01
 O   3.839907335669E+00  4.060662959015E+00  7.067520739062E-01
 O  -3.875032647088E+00 -4.055477639815E+00  7.449103110091E-01
 O   3.861660461092E+00 -4.049931105289E+00  7.278588189738E-01
 O  -3.833674960387E+00  4.060951598295E+00  6.988716950928E-01
 O   3.842146588394E+00 -6.791679981585E+00  6.993259815319E-01
 O  -3.857403520682E+00  6.788319442063E+00  7.256829142255E-01
 O   3.863382315004E+00  6.779781196375E+00  7.271535000860E-01
 O  -3.844674212943E+00 -6.795922016718E+00  7.085941066028E-01
 O   3.839606605217E+00 -1.358862688914E+00  7.014905747733E-01
 O  -3.837130603256E+00  1.364706130006E+00  7.029734643670E-01
 O   3.838252946280E+00  1.364836582329E+00  7.026627345463E-01
 O  -3.836110692744E+00 -1.361151804567E+00  7.000983875386E-01
 O   7.670172053289E+00  4.061156456028E+00  7.136542024232E-01
 O   7.680464545597E+00 -4.067281261851E+00  6.871137324229E-01
 O   7.662439169153E+00 -6.802463135655E+00  7.157428620807E-01
 O   7.658107342561E+00  6.768055356001E+00  7.181620088118E-01
 O   7.673121449717E+00 -1.365599998729E+00  7.317629365314E-01
 O   7.672507300067E+00  1.351773382619E+00  7.079194284748E-01
 CE -7.623357630581E-04  4.003375949545E-04 -1.143923567944E+00
 CE  2.087629296868E-03  5.429761146818E+00 -1.144369796861E+00
 CE -1.018313012926E-03 -5.424982293094E+00 -1.147475657636E+00
 CE  3.834704190693E+00 -2.605826273804E-03 -1.141473110653E+00
 CE -3.833840532239E+00 -1.692094060934E-03 -1.139524781917E+00
 CE  3.837416238711E+00  5.426003948925E+00 -1.139493539150E+00
 CE -3.843856911018E+00 -5.429781831945E+00 -1.133090217255E+00
 CE  3.839986946051E+00 -5.425209407521E+00 -1.149753545841E+00
 CE -3.837873013097E+00  5.430280145949E+00 -1.130253141885E+00
 CE  7.672272019430E+00 -1.255399596126E-03 -1.136462819996E+00
 CE  7.672071202412E+00  5.427728985114E+00 -1.139630664977E+00
 CE  7.673525514595E+00 -5.430407618879E+00 -1.154939205025E+00
 O   1.921572715072E+00  1.345792595980E+00 -1.159626026019E+00
 O  -1.917321761940E+00 -1.341213715385E+00 -1.158068217560E+00
 O   1.915680949353E+00 -1.339323128935E+00 -1.158080098228E+00
 O  -1.922133629381E+00  1.346088321507E+00 -1.158512170021E+00
 O   1.935689042587E+00  6.765069999278E+00 -1.158556603018E+00
 O  -1.939696453918E+00 -6.763135463497E+00 -1.151729149434E+00
 O   1.926690184831E+00 -6.761344506666E+00 -1.147046240139E+00
 O  -1.927010425121E+00  6.764352739308E+00 -1.156087736477E+00
 O   1.934417426828E+00 -4.082108997075E+00 -1.134089849567E+00
 O  -1.918600779310E+00  4.080992476054E+00 -1.160847467108E+00
 O   1.921293688523E+00  4.079936677351E+00 -1.158026771514E+00
 O  -1.954127813780E+00 -4.079654042229E+00 -1.135003076457E+00
 O   5.757311095625E+00  1.344374142453E+00 -1.157790730027E+00
 O  -5.761310456341E+00 -1.347467049843E+00 -1.142752023978E+00
 O   5.763301508942E+00 -1.344877906395E+00 -1.145535531165E+00
 O  -5.754630972407E+00  1.343170006039E+00 -1.159312644648E+00
 O   5.754281134491E+00  6.768866254120E+00 -1.152332639115E+00
 O  -5.762871834302E+00 -6.775052349951E+00 -1.136918192552E+00
 O   5.772231447919E+00 -6.772859518989E+00 -1.141015436573E+00
 O  -5.760191764649E+00  6.770800536578E+00 -1.140298464173E+00
 O   5.767381298933E+00 -4.078073340944E+00 -1.142381737255E+00
 O  -5.758836256215E+00  4.078450429002E+00 -1.156882369677E+00
 O   5.758230935140E+00  4.077722093921E+00 -1.155762188226E+00
 O  -5.751427610761E+00 -4.074117390385E+00 -1.149338824530E+00
 CE  1.918243769682E+00  2.712795171507E+00 -3.057556270450E+00
 CE -1.915495794477E+00 -2.725624058541E+00 -3.063818221402E+00
 CE  1.917599081605E+00 -2.731663982663E+00 -3.071640023673E+00
 CE -1.917858801512E+00  2.714027477686E+00 -3.055540827373E+00
 CE  1.918113030691E+00  8.156782091384E+00 -3.072026248006E+00
 CE -1.915051783053E+00  8.149691164800E+00 -3.063828992347E+00
 CE  5.753204020165E+00  2.712383049989E+00 -3.056409980782E+00
 CE -5.752304810006E+00 -2.716077714052E+00 -3.054202525939E+00
 CE  5.749695887796E+00 -2.722091737454E+00 -3.061096060143E+00
 CE -5.752939727989E+00  2.713290959934E+00 -3.055425629285E+00
 CE  5.748813741252E+00  8.145460031465E+00 -3.061767158745E+00
 CE -5.752205876928E+00  8.138650514461E+00 -3.046363300100E+00
 O  -3.572324987292E-03 -1.297581809835E+00 -3.045900706428E+00
 O  -6.293137355065E-04  1.326823255380E+00 -3.037396730646E+00
 O   6.781693841146E-04  4.100070751742E+00 -3.039617768193E+00
 O  -5.936231656215E-03 -4.072299228760E+00 -2.981212978198E+00
 O  -4.444477361903E-03 -6.773661768999E+00 -2.987757338950E+00
 O  -2.421503639938E-03  6.725653649680E+00 -3.040707658652E+00
 O   3.843017664266E+00 -1.302250275069E+00 -3.039263667387E+00
 O  -3.837298176805E+00  1.319966607260E+00 -3.039781982500E+00
 O   3.838026798309E+00  1.323062248772E+00 -3.038701415501E+00
 O  -3.842859943664E+00 -1.311604519730E+00 -3.037311578543E+00
 O   3.838317022434E+00  4.099103511783E+00 -3.036223833261E+00
 O  -3.843231781265E+00 -4.104985333653E+00 -3.031360029491E+00
 O   3.843498732929E+00 -4.081381156681E+00 -2.995953798450E+00
 O  -3.838392255817E+00  4.104943852489E+00 -3.037748220795E+00
 O   3.845776654750E+00 -6.767738510192E+00 -2.995019282268E+00
 O  -3.844317305240E+00  6.735844055310E+00 -3.037399621452E+00
 O   3.843919436361E+00  6.722809058088E+00 -3.045225811077E+00
 O  -3.847093501689E+00 -6.745095085454E+00 -3.027254506289E+00
 O   7.675158385195E+00 -1.311547125589E+00 -3.037913318844E+00
 O   7.672167628942E+00  1.318985229137E+00 -3.038277791664E+00
 O   7.671744835138E+00  4.104474966656E+00 -3.039665343831E+00
 O   7.676005184487E+00 -4.105416483253E+00 -3.032142846530E+00
 O   7.676464274714E+00 -6.745815520343E+00 -3.033335096049E+00
 O   7.675335003942E+00  6.735540080138E+00 -3.037329354557E+00
 CE  0.000000000000E+00  0.000000000000E+00 -4.794687825205E+00
 CE  0.000000000000E+00  5.424570039800E+00 -4.794687825205E+00
 CE  0.000000000000E+00 -5.424570039800E+00 -4.794687825205E+00
 CE  3.835750260160E+00  0.000000000000E+00 -4.794687825205E+00
 CE -3.835750260160E+00  0.000000000000E+00 -4.794687825205E+00
 CE  3.835750260160E+00  5.424570039800E+00 -4.794687825205E+00
 CE -3.835750260160E+00 -5.424570039800E+00 -4.794687825205E+00
 CE  3.835750260160E+00 -5.424570039800E+00 -4.794687825205E+00
 CE -3.835750260160E+00  5.424570039800E+00 -4.794687825205E+00
 CE  7.671500520300E+00  0.000000000000E+00 -4.794687825205E+00
 CE  7.671500520300E+00  5.424570039800E+00 -4.794687825205E+00
 CE  7.671500520300E+00 -5.424570039800E+00 -4.794687825205E+00
 O   1.917875130080E+00  1.356142509950E+00 -4.794687825205E+00
 O  -1.917875130080E+00 -1.356142509950E+00 -4.794687825205E+00
 O   1.917875130080E+00 -1.356142509950E+00 -4.794687825205E+00
 O  -1.917875130080E+00  1.356142509950E+00 -4.794687825205E+00
 O   1.917875130080E+00  6.780712549750E+00 -4.794687825205E+00
 O  -1.917875130080E+00 -6.780712549750E+00 -4.794687825205E+00
 O   1.917875130080E+00 -6.780712549750E+00 -4.794687825205E+00
 O  -1.917875130080E+00  6.780712549750E+00 -4.794687825205E+00
 O   1.917875130080E+00 -4.068427529850E+00 -4.794687825205E+00
 O  -1.917875130080E+00  4.068427529850E+00 -4.794687825205E+00
 O   1.917875130080E+00  4.068427529850E+00 -4.794687825205E+00
 O  -1.917875130080E+00 -4.068427529850E+00 -4.794687825205E+00
 O   5.753625390240E+00  1.356142509950E+00 -4.794687825205E+00
 O  -5.753625390240E+00 -1.356142509950E+00 -4.794687825205E+00
 O   5.753625390240E+00 -1.356142509950E+00 -4.794687825205E+00
 O  -5.753625390240E+00  1.356142509950E+00 -4.794687825205E+00
 O   5.753625390240E+00  6.780712549750E+00 -4.794687825205E+00
 O  -5.753625390240E+00 -6.780712549750E+00 -4.794687825205E+00
 O   5.753625390240E+00 -6.780712549750E+00 -4.794687825205E+00
 O  -5.753625390240E+00  6.780712549750E+00 -4.794687825205E+00
 O   5.753625390240E+00 -4.068427529850E+00 -4.794687825205E+00
 O  -5.753625390240E+00  4.068427529850E+00 -4.794687825205E+00
 O   5.753625390240E+00  4.068427529850E+00 -4.794687825205E+00
 O  -5.753625390240E+00 -4.068427529850E+00 -4.794687825205E+00
 SI  7.547225887113E+00  1.058938950123E+01  5.811713445535E+00
 O   7.451755422477E+00  1.155181187088E+01  7.266943804858E+00
 O   9.020811809248E+00  9.811982473719E+00  6.277105747267E+00
 O   7.641858819776E+00  2.305361436121E+01  4.690974010353E+00
 O   6.137673120866E+00  9.659612926104E+00  6.257194038208E+00
 C   7.801846457280E+00  1.341787438178E+01  8.717016777109E+00
 C   4.301791002239E+00  1.109605667194E+01  6.975057348596E+00
 C   1.061238424459E+01  1.150383948227E+01  6.983466435596E+00
 C   6.157190047846E+00  2.186917378755E+01  6.190188297643E+00
 C   7.401438636480E+00  1.294032924086E+01  7.331053496494E+00
 C   9.910720126847E+00  1.020313714496E+01  7.319287173740E+00
 C   7.563851700648E+00  2.244044064425E+01  5.960030509935E+00
 C   5.191903035928E+00  9.912178041709E+00  7.297167095665E+00
 H   3.607833310978E+00  1.129266901505E+01  7.805477366642E+00
 H   1.134983517353E+01  1.176880978291E+01  7.754137711203E+00
 H   5.726376666668E+00  1.004331498257E+01  8.245715060137E+00
 H   4.577685795483E+00  8.996000001870E+00  7.368814921244E+00
 H   9.363121344093E+00  1.026099886069E+01  8.268673838726E+00
 H   1.066001426628E+01  9.396352935151E+00  7.394842056850E+00
 H   7.741591305148E+00  1.451212290146E+01  8.785347036185E+00
 H   6.165601822726E+00  2.097219561066E+01  6.824381156566E+00
 H   7.149643185296E+00  1.298131370335E+01  9.480143422685E+00
 H   8.829898583122E+00  1.310999907313E+01  8.937162735674E+00
 H   5.482161693640E+00  2.259416112238E+01  6.667258613908E+00
 H   5.693052170166E+00  2.161913623878E+01  5.234630847117E+00
 H   8.037866375680E+00  1.342865725442E+01  6.571976856893E+00
 H   6.377322046772E+00  1.332957440527E+01  7.102857810833E+00
 H   8.310854161795E+00  2.163722015271E+01  6.024166187725E+00
 H   2.314091218807E+01  2.319759701914E+01  6.738264620818E+00
 H   3.757063311264E+00  1.091985727068E+01  6.049170467964E+00
 H   4.910666427399E+00  1.199481318461E+01  6.830937106497E+00
 H   9.879558474729E+00  1.232223551541E+01  6.946080041188E+00
 H   1.111110634824E+01  1.142071212809E+01  6.014258303612E+00
