  225
Ceria 110-ly7-TEOS-2CH3                 
 O   1.917895894840E+00  1.918113017916E+00  4.330294765326E+00
 O  -1.917895894840E+00 -1.918113017916E+00  4.330294765326E+00
 O   1.917895894840E+00 -1.918113017916E+00  4.330294765326E+00
 O  -1.917895894840E+00  1.918113017916E+00  4.330294765326E+00
 O   1.917796975193E+00  5.753976310191E+00  4.329472693325E+00
 O  -1.917796975193E+00 -5.753976310191E+00  4.329472693325E+00
 O   1.917796975193E+00 -5.753976310191E+00  4.329472693325E+00
 O  -1.917796975193E+00  5.753976310191E+00  4.329472693325E+00
 O   5.753623834846E+00  1.918300954521E+00  4.330326364487E+00
 O  -5.753623834846E+00 -1.918300954521E+00  4.330326364487E+00
 O   5.753623834846E+00 -1.918300954521E+00  4.330326364487E+00
 O  -5.753623834846E+00  1.918300954521E+00  4.330326364487E+00
 O   5.753566265924E+00  5.753884279701E+00  4.329326863035E+00
 O  -5.753566265924E+00 -5.753884279701E+00  4.329326863035E+00
 O   5.753566265924E+00 -5.753884279701E+00  4.329326863035E+00
 O  -5.753566265924E+00  5.753884279701E+00  4.329326863035E+00
 CE -1.852795328420E-16  1.917966804734E+00  3.337699340252E+00
 CE -1.852795328420E-16 -1.917966804734E+00  3.337699340252E+00
 CE -1.852299930910E-16  5.753865708937E+00  3.336806911435E+00
 CE -1.852299930910E-16 -5.753865708937E+00  3.336806911435E+00
 CE  3.835828064673E+00  1.917992853216E+00  3.337778322571E+00
 CE -3.835828064673E+00 -1.917992853216E+00  3.337778322571E+00
 CE  3.835828064673E+00 -1.917992853216E+00  3.337778322571E+00
 CE -3.835828064673E+00  1.917992853216E+00  3.337778322571E+00
 CE  3.835500345456E+00  5.753786636126E+00  3.336838996061E+00
 CE -3.835500345456E+00 -5.753786636126E+00  3.336838996061E+00
 CE  3.835500345456E+00 -5.753786636126E+00  3.336838996061E+00
 CE -3.835500345456E+00  5.753786636126E+00  3.336838996061E+00
 CE  7.671500520300E+00  1.918079711107E+00  3.337717052953E+00
 CE  7.671500520300E+00 -1.918079711107E+00  3.337717052953E+00
 CE  7.671500520300E+00  5.753771754524E+00  3.336925899777E+00
 CE  7.671500520300E+00 -5.753771754524E+00  3.336925899777E+00
 O   1.917734056283E+00  1.917883463310E+00  1.764032104173E+00
 O  -1.917734056283E+00 -1.917883463310E+00  1.764032104173E+00
 O   1.917734056283E+00 -1.917883463310E+00  1.764032104173E+00
 O  -1.917734056283E+00  1.917883463310E+00  1.764032104173E+00
 O   1.917988156785E+00  5.753687941173E+00  1.764023575484E+00
 O  -1.917988156785E+00 -5.753687941173E+00  1.764023575484E+00
 O   1.917988156785E+00 -5.753687941173E+00  1.764023575484E+00
 O  -1.917988156785E+00  5.753687941173E+00  1.764023575484E+00
 O   5.753597653307E+00  1.917894356992E+00  1.764318345264E+00
 O  -5.753597653307E+00 -1.917894356992E+00  1.764318345264E+00
 O   5.753597653307E+00 -1.917894356992E+00  1.764318345264E+00
 O  -5.753597653307E+00  1.917894356992E+00  1.764318345264E+00
 O   5.754300788182E+00  5.753661208940E+00  1.763602206263E+00
 O  -5.754300788182E+00 -5.753661208940E+00  1.763602206263E+00
 O   5.754300788182E+00 -5.753661208940E+00  1.763602206263E+00
 O  -5.754300788182E+00  5.753661208940E+00  1.763602206263E+00
 O  -1.229542298222E-16  1.229542298222E-16  2.214946494433E+00
 O  -1.229174828443E-16  3.835712592223E+00  2.214284519730E+00
 O  -1.229174828443E-16 -3.835712592223E+00  2.214284519730E+00
 O  -1.228715123291E-16  7.671500520300E+00  2.213456388549E+00
 O   3.836096887389E+00  1.229566080010E-16  2.214989335894E+00
 O  -3.836096887389E+00  1.229566080010E-16  2.214989335894E+00
 O   3.835518039442E+00  3.835646125007E+00  2.214293054961E+00
 O  -3.835518039442E+00 -3.835646125007E+00  2.214293054961E+00
 O   3.835518039442E+00 -3.835646125007E+00  2.214293054961E+00
 O  -3.835518039442E+00  3.835646125007E+00  2.214293054961E+00
 O   3.835681989611E+00  7.671500520300E+00  2.213572904412E+00
 O  -3.835681989611E+00  7.671500520300E+00  2.213572904412E+00
 O   7.671500520300E+00  1.229582919337E-16  2.215019670929E+00
 O   7.671500520300E+00  3.835705780112E+00  2.214305567349E+00
 O   7.671500520300E+00 -3.835705780112E+00  2.214305567349E+00
 O   7.671500520300E+00  7.671500520300E+00  2.213640354711E+00
 CE  1.917797018283E+00  3.352823992812E-17  6.039910753840E-01
 CE -1.917797018283E+00  3.352823992812E-17  6.039910753840E-01
 CE  1.917884247814E+00  3.835758007763E+00  6.039010237420E-01
 CE -1.917884247814E+00 -3.835758007763E+00  6.039010237420E-01
 CE  1.917884247814E+00 -3.835758007763E+00  6.039010237420E-01
 CE -1.917884247814E+00  3.835758007763E+00  6.039010237420E-01
 CE  1.917893936659E+00  7.671500520300E+00  6.035948734380E-01
 CE -1.917893936659E+00  7.671500520300E+00  6.035948734380E-01
 CE  5.753564926847E+00  3.354577581641E-17  6.043069738640E-01
 CE -5.753564926847E+00  3.354577581641E-17  6.043069738640E-01
 CE  5.753729112693E+00  3.835596063749E+00  6.039509157690E-01
 CE -5.753729112693E+00 -3.835596063749E+00  6.039509157690E-01
 CE  5.753729112693E+00 -3.835596063749E+00  6.039509157690E-01
 CE -5.753729112693E+00  3.835596063749E+00  6.039509157690E-01
 CE  5.753892286899E+00  7.671500520300E+00  6.035597021790E-01
 CE -5.753892286899E+00  7.671500520300E+00  6.035597021790E-01
 O   3.575613507522E-17 -3.575613507522E-17 -6.441252664010E-01
 O   3.576432125589E-17  3.835951925065E+00 -6.442727355220E-01
 O   3.576432125589E-17 -3.835951925065E+00 -6.442727355220E-01
 O   3.577057421232E-17  7.671500520300E+00 -6.443853787710E-01
 O   3.835767238888E+00 -3.574344827638E-17 -6.438967213510E-01
 O  -3.835767238888E+00 -3.574344827638E-17 -6.438967213510E-01
 O   3.835835462264E+00  3.835794910672E+00 -6.441310921200E-01
 O  -3.835835462264E+00 -3.835794910672E+00 -6.441310921200E-01
 O   3.835835462264E+00 -3.835794910672E+00 -6.441310921200E-01
 O  -3.835835462264E+00  3.835794910672E+00 -6.441310921200E-01
 O   3.835777611937E+00  7.671500520300E+00 -6.443767573280E-01
 O  -3.835777611937E+00  7.671500520300E+00 -6.443767573280E-01
 O   7.671500520300E+00 -3.573434791170E-17 -6.437327837550E-01
 O   7.671500520300E+00  3.834850058981E+00 -6.442308959220E-01
 O   7.671500520300E+00 -3.834850058981E+00 -6.442308959220E-01
 O   7.671500520300E+00  7.671500520300E+00 -6.448140307730E-01
 O   1.917858426075E+00  1.917871713587E+00 -8.658555185580E-01
 O  -1.917858426075E+00 -1.917871713587E+00 -8.658555185580E-01
 O   1.917858426075E+00 -1.917871713587E+00 -8.658555185580E-01
 O  -1.917858426075E+00  1.917871713587E+00 -8.658555185580E-01
 O   1.917823889335E+00  5.753561200028E+00 -8.657544107510E-01
 O  -1.917823889335E+00 -5.753561200028E+00 -8.657544107510E-01
 O   1.917823889335E+00 -5.753561200028E+00 -8.657544107510E-01
 O  -1.917823889335E+00  5.753561200028E+00 -8.657544107510E-01
 O   5.753618393879E+00  1.917924447746E+00 -8.659093516480E-01
 O  -5.753618393879E+00 -1.917924447746E+00 -8.659093516480E-01
 O   5.753618393879E+00 -1.917924447746E+00 -8.659093516480E-01
 O  -5.753618393879E+00  1.917924447746E+00 -8.659093516480E-01
 O   5.753567982726E+00  5.753654417632E+00 -8.660424444640E-01
 O  -5.753567982726E+00 -5.753654417632E+00 -8.660424444640E-01
 O   5.753567982726E+00 -5.753654417632E+00 -8.660424444640E-01
 O  -5.753567982726E+00  5.753654417632E+00 -8.660424444640E-01
 CE  1.173989476020E-16  1.917867113267E+00 -2.114871426687E+00
 CE  1.173989476020E-16 -1.917867113267E+00 -2.114871426687E+00
 CE  1.174025403700E-16  5.753583309807E+00 -2.114936148242E+00
 CE  1.174025403700E-16 -5.753583309807E+00 -2.114936148242E+00
 CE  3.835764428792E+00  1.917873683440E+00 -2.114857864986E+00
 CE -3.835764428792E+00 -1.917873683440E+00 -2.114857864986E+00
 CE  3.835764428792E+00 -1.917873683440E+00 -2.114857864986E+00
 CE -3.835764428792E+00  1.917873683440E+00 -2.114857864986E+00
 CE  3.835790813146E+00  5.753616225566E+00 -2.114922251340E+00
 CE -3.835790813146E+00 -5.753616225566E+00 -2.114922251340E+00
 CE  3.835790813146E+00 -5.753616225566E+00 -2.114922251340E+00
 CE -3.835790813146E+00  5.753616225566E+00 -2.114922251340E+00
 CE  7.671500520300E+00  1.917888785093E+00 -2.114821740805E+00
 CE  7.671500520300E+00 -1.917888785093E+00 -2.114821740805E+00
 CE  7.671500520300E+00  5.753644931191E+00 -2.114887550446E+00
 CE  7.671500520300E+00 -5.753644931191E+00 -2.114887550446E+00
 O   1.917879680388E+00  1.917873829078E+00 -3.575693300994E+00
 O  -1.917879680388E+00 -1.917873829078E+00 -3.575693300994E+00
 O   1.917879680388E+00 -1.917873829078E+00 -3.575693300994E+00
 O  -1.917879680388E+00  1.917873829078E+00 -3.575693300994E+00
 O   1.917894093912E+00  5.753621026886E+00 -3.575639000894E+00
 O  -1.917894093912E+00 -5.753621026886E+00 -3.575639000894E+00
 O   1.917894093912E+00 -5.753621026886E+00 -3.575639000894E+00
 O  -1.917894093912E+00  5.753621026886E+00 -3.575639000894E+00
 O   5.753614021820E+00  1.917878851528E+00 -3.575756229699E+00
 O  -5.753614021820E+00 -1.917878851528E+00 -3.575756229699E+00
 O   5.753614021820E+00 -1.917878851528E+00 -3.575756229699E+00
 O  -5.753614021820E+00  1.917878851528E+00 -3.575756229699E+00
 O   5.753605100607E+00  5.753628230871E+00 -3.575795592608E+00
 O  -5.753605100607E+00 -5.753628230871E+00 -3.575795592608E+00
 O   5.753605100607E+00 -5.753628230871E+00 -3.575795592608E+00
 O  -5.753605100607E+00  5.753628230871E+00 -3.575795592608E+00
 O   1.882025799033E-16 -1.882025799033E-16 -3.390356274875E+00
 O   1.882025799033E-16  3.835750260159E+00 -3.390356274875E+00
 O   1.882025799033E-16 -3.835750260159E+00 -3.390356274875E+00
 O   1.882025799033E-16  7.671500520300E+00 -3.390356274875E+00
 O   3.835750260161E+00 -1.882025799033E-16 -3.390356274875E+00
 O  -3.835750260161E+00 -1.882025799033E-16 -3.390356274875E+00
 O   3.835750260161E+00  3.835750260159E+00 -3.390356274875E+00
 O  -3.835750260161E+00 -3.835750260159E+00 -3.390356274875E+00
 O   3.835750260161E+00 -3.835750260159E+00 -3.390356274875E+00
 O  -3.835750260161E+00  3.835750260159E+00 -3.390356274875E+00
 O   3.835750260161E+00  7.671500520300E+00 -3.390356274875E+00
 O  -3.835750260161E+00  7.671500520300E+00 -3.390356274875E+00
 O   7.671500520300E+00 -1.882025799033E-16 -3.390356274875E+00
 O   7.671500520300E+00  3.835750260159E+00 -3.390356274875E+00
 O   7.671500520300E+00 -3.835750260159E+00 -3.390356274875E+00
 O   7.671500520300E+00  7.671500520300E+00 -3.390356274875E+00
 CE  1.917875130081E+00 -2.634836118646E-16 -4.746498784825E+00
 CE -1.917875130081E+00 -2.634836118646E-16 -4.746498784825E+00
 CE  1.917875130081E+00  3.835750260159E+00 -4.746498784825E+00
 CE -1.917875130081E+00 -3.835750260159E+00 -4.746498784825E+00
 CE  1.917875130081E+00 -3.835750260159E+00 -4.746498784825E+00
 CE -1.917875130081E+00  3.835750260159E+00 -4.746498784825E+00
 CE  1.917875130081E+00  7.671500520300E+00 -4.746498784825E+00
 CE -1.917875130081E+00  7.671500520300E+00 -4.746498784825E+00
 CE  5.753625390240E+00 -2.634836118646E-16 -4.746498784825E+00
 CE -5.753625390240E+00 -2.634836118646E-16 -4.746498784825E+00
 CE  5.753625390240E+00  3.835750260159E+00 -4.746498784825E+00
 CE -5.753625390240E+00 -3.835750260159E+00 -4.746498784825E+00
 CE  5.753625390240E+00 -3.835750260159E+00 -4.746498784825E+00
 CE -5.753625390240E+00  3.835750260159E+00 -4.746498784825E+00
 CE  5.753625390240E+00  7.671500520300E+00 -4.746498784825E+00
 CE -5.753625390240E+00  7.671500520300E+00 -4.746498784825E+00
 O   3.386180225121E-16 -3.386180225121E-16 -6.100000000000E+00
 O   3.386180225121E-16  3.835750260159E+00 -6.100000000000E+00
 O   3.386180225121E-16 -3.835750260159E+00 -6.100000000000E+00
 O   3.386180225121E-16  7.671500520300E+00 -6.100000000000E+00
 O   3.835750260161E+00 -3.386180225121E-16 -6.100000000000E+00
 O  -3.835750260161E+00 -3.386180225121E-16 -6.100000000000E+00
 O   3.835750260161E+00  3.835750260159E+00 -6.100000000000E+00
 O  -3.835750260161E+00 -3.835750260159E+00 -6.100000000000E+00
 O   3.835750260161E+00 -3.835750260159E+00 -6.100000000000E+00
 O  -3.835750260161E+00  3.835750260159E+00 -6.100000000000E+00
 O   3.835750260161E+00  7.671500520300E+00 -6.100000000000E+00
 O  -3.835750260161E+00  7.671500520300E+00 -6.100000000000E+00
 O   7.671500520300E+00 -3.386180225121E-16 -6.100000000000E+00
 O   7.671500520300E+00  3.835750260159E+00 -6.100000000000E+00
 O   7.671500520300E+00 -3.835750260159E+00 -6.100000000000E+00
 O   7.671500520300E+00  7.671500520300E+00 -6.100000000000E+00
 H   2.569277582255E+01  2.372963883940E+01  7.814800000000E+00
 H   2.569707186284E+01  2.608601693922E+01  7.004000000000E+00
 C   2.482758399387E+01  2.544145746550E+01  6.859000000000E+00
 C   2.479198823145E+01  2.434995637147E+01  7.910000000000E+00
 H   2.486916352669E+01  2.501185343637E+01  5.854200000000E+00
 H   2.390807794150E+01  2.372027960877E+01  7.744800000000E+00
 H   2.394244626384E+01  2.607681113859E+01  6.935200000000E+00
 O   2.605594465718E+01  2.301250697076E+01  1.061260000000E+01
 C   2.839575231587E+01  2.253288475824E+01  1.070460000000E+01
 C   2.733984698426E+01  2.361932266192E+01  1.066260000000E+01
 H   2.547459834775E+01  2.373255400960E+01  1.337240000000E+01
 H   2.939857086388E+01  2.296709168768E+01  1.074380000000E+01
 H   2.825367612623E+01  2.189277475482E+01  1.157800000000E+01
 H   2.832256620091E+01  2.189185417476E+01  9.823400000000E+00
 H   2.750263622530E+01  2.424454995432E+01  9.775000000000E+00
 H   2.743267214055E+01  2.424547053439E+01  1.155940000000E+01
 H   2.541552779374E+01  2.608985268948E+01  1.417840000000E+01
 SI  2.469011070454E+01  2.397850231628E+01  1.055840000000E+01
 O   2.333424970259E+01  2.299839140981E+01  1.050580000000E+01
 O   2.463150044057E+01  2.495216916232E+01  1.191860000000E+01
 O   2.473844115782E+01  2.495063486221E+01  9.196800000000E+00
 C   2.099965866425E+01  2.249406696560E+01  1.041440000000E+01
 C   2.453729441418E+01  2.544529321576E+01  1.425540000000E+01
 C   2.204405674508E+01  2.359155183004E+01  1.045480000000E+01
 C   2.458424399736E+01  2.435287154167E+01  1.320600000000E+01
 H   2.450001092165E+01  2.501691662671E+01  1.526080000000E+01
 H   2.369005389672E+01  2.372319477897E+01  1.330240000000E+01
 H   1.999208378591E+01  2.291784065434E+01  1.037460000000E+01
 H   2.114833234433E+01  2.185426382221E+01  9.541800000000E+00
 H   2.107944226966E+01  2.185518440227E+01  1.129640000000E+01
 H   2.187482344360E+01  2.421631883241E+01  1.134140000000E+01
 H   2.194478752835E+01  2.421539825235E+01  9.556800000000E+00
 H   2.366090219474E+01  2.608064688885E+01  1.410960000000E+01
