  249
Ceria 110-ly7-TEOS-2CH3                 
 CE  1.935940420813E+00  2.713262628313E+00  4.284291664928E+00
 CE -1.935961951680E+00  2.713254337570E+00  4.284316350491E+00
 CE -1.916329284555E+00 -2.695554353073E+00  4.265602556083E+00
 CE  1.916370910850E+00 -2.696128716112E+00  4.265521688750E+00
 CE  1.886051205260E+00 -8.131746225753E+00  4.271460580754E+00
 CE -1.885964316896E+00 -8.131727913605E+00  4.271377703842E+00
 CE  5.815128924410E+00  2.685145236923E+00  4.341102986920E+00
 CE -5.815250941817E+00  2.685157004160E+00  4.341277585067E+00
 CE -5.749319533705E+00 -2.720329014502E+00  4.252797274481E+00
 CE  5.749249145774E+00 -2.720370628266E+00  4.252767134089E+00
 CE  5.644098751019E+00 -8.061813353297E+00  4.279650285267E+00
 CE -5.644090523159E+00 -8.061787904924E+00  4.279660682703E+00
 O  -2.016595600000E-05  3.992510371278E+00  4.377979957563E+00
 O   4.050832776000E-03 -3.976566617591E+00  4.371091283696E+00
 O  -1.277838580000E-04 -6.858216240506E+00  4.382295946068E+00
 O  -1.412600000000E-07  6.877948898662E+00  4.420050681739E+00
 O  -1.235205633000E-03 -1.433968365368E+00  4.387646572114E+00
 O   5.179482000000E-06  1.448802822720E+00  4.387155548260E+00
 O   3.848914512996E+00  4.016520505593E+00  4.426012311912E+00
 O  -3.848871846523E+00  4.016494992302E+00  4.426027074526E+00
 O  -3.826453561298E+00 -3.978751092064E+00  4.349123757715E+00
 O   3.827114943052E+00 -3.979016554256E+00  4.348876429646E+00
 O   3.823242202915E+00 -6.829627908075E+00  4.410477744088E+00
 O  -3.823235382632E+00 -6.829407598448E+00  4.410430834814E+00
 O  -3.799561307552E+00  6.909578094802E+00  4.307500474815E+00
 O   3.799551279636E+00  6.909521511899E+00  4.307472252539E+00
 O   3.848743903421E+00 -1.441215988736E+00  4.391039839377E+00
 O  -3.847800933610E+00 -1.441236036096E+00  4.391179646620E+00
 O  -3.839593544609E+00  1.452514171542E+00  4.405783327394E+00
 O   3.839559150829E+00  1.452530379293E+00  4.405861429759E+00
 O   7.671404314550E+00  3.967873890857E+00  4.169141917725E+00
 O   7.671699629053E+00 -4.096691646739E+00  4.382906051202E+00
 O   7.671554456600E+00 -7.092993949892E+00  4.283006874799E+00
 O   7.671490041732E+00  6.526409138175E+00  4.775486414178E+00
 O   7.671636097224E+00 -1.561580806535E+00  4.253457940989E+00
 O   7.671405726221E+00  1.403298039083E+00  4.044475471936E+00
 CE -5.861312600000E-05  1.685823276700E-02  2.609540893682E+00
 CE  4.796755000000E-06  5.411270715471E+00  2.607658520201E+00
 CE  3.734147510000E-04 -5.407229903458E+00  2.591770740228E+00
 CE  3.842704550917E+00  1.187320136000E-02  2.605756782527E+00
 CE -3.842745283766E+00  1.198733608700E-02  2.605745043333E+00
 CE  3.846103696910E+00  5.402625311990E+00  2.614319897646E+00
 CE -3.846127357240E+00  5.402623666898E+00  2.614359127072E+00
 CE -3.811590140914E+00 -5.394068892518E+00  2.571764319359E+00
 CE  3.811907929962E+00 -5.394075978614E+00  2.571587433318E+00
 CE  7.671471891648E+00 -2.604472507300E-02  2.522819709909E+00
 CE  7.671484080002E+00  5.395315634409E+00  2.559620012690E+00
 CE  7.671525345628E+00 -5.426513220742E+00  2.590312272091E+00
 O   1.921658669563E+00  1.373361152342E+00  2.554188862004E+00
 O  -1.921720873021E+00  1.373312545859E+00  2.554125789854E+00
 O  -1.916798710806E+00 -1.358474615626E+00  2.548227405236E+00
 O   1.916555883796E+00 -1.358226372979E+00  2.548359013229E+00
 O   1.887683691071E+00  6.790218814529E+00  2.543159587082E+00
 O  -1.887669326881E+00  6.790188589577E+00  2.543126486979E+00
 O  -1.918411353356E+00 -6.783414000300E+00  2.547429668553E+00
 O   1.918487860022E+00 -6.783495120771E+00  2.547545213081E+00
 O   1.908162738298E+00 -4.047459726562E+00  2.529848389250E+00
 O  -1.906762750046E+00 -4.047408528122E+00  2.531497419265E+00
 O  -1.935787077910E+00  4.060571919077E+00  2.557724022782E+00
 O   1.935755305052E+00  4.060586970791E+00  2.557724100004E+00
 O   5.690812574593E+00  1.361240748528E+00  2.513918871752E+00
 O  -5.690870153765E+00  1.361235628493E+00  2.513931314987E+00
 O  -5.727329138542E+00 -1.376340801697E+00  2.516075801149E+00
 O   5.727463043595E+00 -1.376340786353E+00  2.515915511849E+00
 O   5.838154846534E+00  6.820907670446E+00  2.623550077579E+00
 O  -5.838177214811E+00  6.820928064651E+00  2.623566969543E+00
 O  -5.707927851160E+00 -6.746298469282E+00  2.535780330689E+00
 O   5.708085457377E+00 -6.746393647257E+00  2.535760056080E+00
 O   5.754573957112E+00 -4.055543060276E+00  2.526651526217E+00
 O  -5.754281587299E+00 -4.055518578523E+00  2.526778160892E+00
 O  -5.721883834954E+00  4.068574688047E+00  2.537183189197E+00
 O   5.721845892241E+00  4.068553824080E+00  2.537134817663E+00
 CE  1.917126765184E+00  2.712096725255E+00  6.584847512220E-01
 CE -1.917134860017E+00  2.712119306299E+00  6.584728481110E-01
 CE -1.913075571433E+00 -2.697011606186E+00  6.467013689320E-01
 CE  1.913246216772E+00 -2.696975351258E+00  6.466551205140E-01
 CE  1.917400832668E+00  8.131958293816E+00  6.599947465590E-01
 CE -1.917307989632E+00  8.131983930052E+00  6.599873531480E-01
 CE  5.744723532891E+00  2.704599711156E+00  6.756721742360E-01
 CE -5.744771046933E+00  2.704622505604E+00  6.757077268200E-01
 CE -5.746677504274E+00 -2.712772109824E+00  6.399974867770E-01
 CE  5.746765105462E+00 -2.712779821046E+00  6.399603226210E-01
 CE  5.753782704177E+00  8.136618423578E+00  6.634803990360E-01
 CE -5.753765675504E+00  8.136626263138E+00  6.635094270930E-01
 O  -1.203854400000E-05  4.063965983241E+00  7.093667575960E-01
 O  -7.332591000000E-05 -4.054363870954E+00  6.868450189010E-01
 O   1.225041170000E-04 -6.786724693659E+00  7.024681097130E-01
 O  -1.951846000000E-06  6.789726660029E+00  6.847690770470E-01
 O  -1.269026430000E-04 -1.354993956521E+00  6.975703337620E-01
 O  -3.809067000000E-06  1.368572031425E+00  7.021124868480E-01
 O   3.824225780425E+00  4.061376755029E+00  6.899984878760E-01
 O  -3.824243916303E+00  4.061379574748E+00  6.900145335680E-01
 O  -3.827593687653E+00 -4.057984396230E+00  6.869490273030E-01
 O   3.828056850464E+00 -4.057932826230E+00  6.865401381960E-01
 O   3.825915535232E+00 -6.790642394366E+00  6.864218036120E-01
 O  -3.825884181701E+00 -6.790575753312E+00  6.864573499100E-01
 O  -3.865955999310E+00  6.785632787639E+00  7.369442086030E-01
 O   3.865968501265E+00  6.785603008531E+00  7.369075938330E-01
 O   3.825210480359E+00 -1.363508150840E+00  6.822693358510E-01
 O  -3.825148088380E+00 -1.363521121719E+00  6.822668751470E-01
 O  -3.813675307484E+00  1.365564407714E+00  6.786349604150E-01
 O   3.813625146640E+00  1.365556712846E+00  6.786315566760E-01
 O   7.671494658980E+00  4.057321637998E+00  7.053531292620E-01
 O   7.671608715477E+00 -4.078513083926E+00  6.888410528180E-01
 O   7.671527086667E+00 -6.802692594911E+00  7.155147535770E-01
 O   7.671509680582E+00  6.777246534991E+00  6.845564601830E-01
 O   7.671588441144E+00 -1.389795772362E+00  6.532477169020E-01
 O   7.671490664196E+00  1.363463918742E+00  6.738835107820E-01
 CE  3.107271000000E-06  7.455491715000E-03 -1.134538200637E+00
 CE  8.506002000000E-06  5.422953220639E+00 -1.129266876806E+00
 CE  4.847955900000E-05 -5.424382875283E+00 -1.133873150598E+00
 CE  3.833352790985E+00  3.804618192000E-03 -1.134598959684E+00
 CE -3.833344535908E+00  3.806578910000E-03 -1.134605293874E+00
 CE  3.838637377821E+00  5.422227920873E+00 -1.126148168101E+00
 CE -3.838637613237E+00  5.422234915358E+00 -1.126132947843E+00
 CE -3.831300894961E+00 -5.426911480575E+00 -1.139675638871E+00
 CE  3.831352624878E+00 -5.426893390969E+00 -1.139697231778E+00
 CE  7.671506592887E+00  5.406235853000E-03 -1.152333230278E+00
 CE  7.671497373053E+00  5.415963002264E+00 -1.138336955470E+00
 CE  7.671510312565E+00 -5.426291176820E+00 -1.134615934347E+00
 O   1.908720862268E+00  1.349622411314E+00 -1.168290965539E+00
 O  -1.908744981955E+00  1.349611107556E+00 -1.168287827066E+00
 O  -1.910862796714E+00 -1.341228491593E+00 -1.170134961613E+00
 O   1.910831785466E+00 -1.341143568837E+00 -1.170182213576E+00
 O   1.933138771426E+00  6.770120972158E+00 -1.151478069151E+00
 O  -1.933142123984E+00  6.770139185706E+00 -1.151470388282E+00
 O  -1.912890072474E+00 -6.772496811533E+00 -1.163771428263E+00
 O   1.912902635233E+00 -6.772508468918E+00 -1.163790809266E+00
 O   1.917569284344E+00 -4.079808805774E+00 -1.167286338902E+00
 O  -1.917584824657E+00 -4.079774215652E+00 -1.167248395905E+00
 O  -1.912349140931E+00  4.083292399068E+00 -1.162514211517E+00
 O   1.912342747660E+00  4.083284751889E+00 -1.162514660308E+00
 O   5.749351870632E+00  1.344477785634E+00 -1.166057907425E+00
 O  -5.749352305684E+00  1.344470247396E+00 -1.166056175484E+00
 O  -5.748350749868E+00 -1.344186404634E+00 -1.174670850152E+00
 O   5.748407262263E+00 -1.344152341527E+00 -1.174699294050E+00
 O   5.749789102566E+00  6.774160454701E+00 -1.156386238685E+00
 O  -5.749769282402E+00  6.774174994051E+00 -1.156375340003E+00
 O  -5.758352934292E+00 -6.775081197261E+00 -1.152170386234E+00
 O   5.758419803583E+00 -6.775098108929E+00 -1.152216034604E+00
 O   5.750742678205E+00 -4.086569680635E+00 -1.169917284237E+00
 O  -5.750576681291E+00 -4.086556593009E+00 -1.169849376141E+00
 O  -5.754162236708E+00  4.083561796211E+00 -1.158691906132E+00
 O   5.754159591183E+00  4.083555911328E+00 -1.158695720265E+00
 CE  1.917258144673E+00  2.713293344710E+00 -3.051097241514E+00
 CE -1.917256455135E+00  2.713297527186E+00 -3.051102542753E+00
 CE -1.916473824846E+00 -2.710795011826E+00 -3.054297492133E+00
 CE  1.916489317270E+00 -2.710798227816E+00 -3.054282933368E+00
 CE  1.917908971264E+00  8.135416114995E+00 -3.050008331737E+00
 CE -1.917893090836E+00  8.135407956390E+00 -3.050011728417E+00
 CE  5.750884973862E+00  2.712727663342E+00 -3.046959918003E+00
 CE -5.750887015069E+00  2.712731245132E+00 -3.046954831100E+00
 CE -5.752012845105E+00 -2.711988602260E+00 -3.055575835737E+00
 CE  5.752023543196E+00 -2.711985229617E+00 -3.055569863779E+00
 CE  5.753504900714E+00  8.135183801553E+00 -3.048989134048E+00
 CE -5.753507411516E+00  8.135183383692E+00 -3.048983873212E+00
 O  -1.016881600000E-05 -1.317106375687E+00 -3.047056379912E+00
 O  -6.037751000000E-06  1.321285303277E+00 -3.047201680834E+00
 O  -2.215138000000E-06  4.109864384903E+00 -3.044717574252E+00
 O  -9.740327000000E-06 -4.107540742757E+00 -3.044878188344E+00
 O   7.896750000000E-07 -6.744353303480E+00 -3.044750411117E+00
 O  -4.594012000000E-06  6.743609832101E+00 -3.035148765954E+00
 O   3.833500916669E+00 -1.319652561069E+00 -3.047614494410E+00
 O  -3.833497858524E+00 -1.319650686262E+00 -3.047615738742E+00
 O  -3.834241782749E+00  1.320742581902E+00 -3.045175352095E+00
 O   3.834241249775E+00  1.320750314204E+00 -3.045177773660E+00
 O   3.836085364152E+00  4.109253056200E+00 -3.039571474273E+00
 O  -3.836085732855E+00  4.109259007473E+00 -3.039564664906E+00
 O  -3.834782442039E+00 -4.109066617471E+00 -3.046015946437E+00
 O   3.834801958473E+00 -4.109047625786E+00 -3.046035048550E+00
 O   3.837182318625E+00 -6.745141083497E+00 -3.040977235531E+00
 O  -3.837170915413E+00 -6.745126493055E+00 -3.040952316234E+00
 O  -3.836768854818E+00  6.742636582390E+00 -3.042250200935E+00
 O   3.836772983340E+00  6.742630056116E+00 -3.042248815395E+00
 O   7.671516433613E+00 -1.318861201727E+00 -3.048656611454E+00
 O   7.671499502539E+00  1.320693277659E+00 -3.045954506787E+00
 O   7.671499732446E+00  4.105888093619E+00 -3.042770228387E+00
 O   7.671527596153E+00 -4.108776246899E+00 -3.043726409768E+00
 O   7.671514820418E+00 -6.744451608576E+00 -3.041279850495E+00
 O   7.671506214228E+00  6.741031778719E+00 -3.040427059549E+00
 CE  0.000000000000E+00  0.000000000000E+00 -4.794687825205E+00
 CE  0.000000000000E+00  5.424570039800E+00 -4.794687825205E+00
 CE  0.000000000000E+00 -5.424570039800E+00 -4.794687825205E+00
 CE  3.835750260160E+00  0.000000000000E+00 -4.794687825205E+00
 CE -3.835750260160E+00  0.000000000000E+00 -4.794687825205E+00
 CE  3.835750260160E+00  5.424570039800E+00 -4.794687825205E+00
 CE -3.835750260160E+00  5.424570039800E+00 -4.794687825205E+00
 CE -3.835750260160E+00 -5.424570039800E+00 -4.794687825205E+00
 CE  3.835750260160E+00 -5.424570039800E+00 -4.794687825205E+00
 CE  7.671500520300E+00  0.000000000000E+00 -4.794687825205E+00
 CE  7.671500520300E+00  5.424570039800E+00 -4.794687825205E+00
 CE  7.671500520300E+00 -5.424570039800E+00 -4.794687825205E+00
 O   1.917875130080E+00  1.356142509950E+00 -4.794687825205E+00
 O  -1.917875130080E+00  1.356142509950E+00 -4.794687825205E+00
 O  -1.917875130080E+00 -1.356142509950E+00 -4.794687825205E+00
 O   1.917875130080E+00 -1.356142509950E+00 -4.794687825205E+00
 O   1.917875130080E+00  6.780712549750E+00 -4.794687825205E+00
 O  -1.917875130080E+00  6.780712549750E+00 -4.794687825205E+00
 O  -1.917875130080E+00 -6.780712549750E+00 -4.794687825205E+00
 O   1.917875130080E+00 -6.780712549750E+00 -4.794687825205E+00
 O   1.917875130080E+00 -4.068427529850E+00 -4.794687825205E+00
 O  -1.917875130080E+00 -4.068427529850E+00 -4.794687825205E+00
 O  -1.917875130080E+00  4.068427529850E+00 -4.794687825205E+00
 O   1.917875130080E+00  4.068427529850E+00 -4.794687825205E+00
 O   5.753625390240E+00  1.356142509950E+00 -4.794687825205E+00
 O  -5.753625390240E+00  1.356142509950E+00 -4.794687825205E+00
 O  -5.753625390240E+00 -1.356142509950E+00 -4.794687825205E+00
 O   5.753625390240E+00 -1.356142509950E+00 -4.794687825205E+00
 O   5.753625390240E+00  6.780712549750E+00 -4.794687825205E+00
 O  -5.753625390240E+00  6.780712549750E+00 -4.794687825205E+00
 O  -5.753625390240E+00 -6.780712549750E+00 -4.794687825205E+00
 O   5.753625390240E+00 -6.780712549750E+00 -4.794687825205E+00
 O   5.753625390240E+00 -4.068427529850E+00 -4.794687825205E+00
 O  -5.753625390240E+00 -4.068427529850E+00 -4.794687825205E+00
 O  -5.753625390240E+00  4.068427529850E+00 -4.794687825205E+00
 O   5.753625390240E+00  4.068427529850E+00 -4.794687825205E+00
 SI  7.671512473835E+00  6.519499342137E+00  6.367839505559E+00
 O   6.271455477814E+00  7.364194023044E+00  6.802438604200E+00
 O  -6.271433088050E+00  7.364166353981E+00  6.802425298243E+00
 O   7.671467719190E+00  5.152764422008E+00  7.252123942679E+00
 C   5.065111863721E+00  6.546090549807E+00  6.986916839611E+00
 C  -5.065109285584E+00  6.546048052692E+00  6.986906313716E+00
 C   7.671496213284E+00  5.265191536352E+00  8.681426208848E+00
 C   3.884675543448E+00  7.470848217491E+00  7.230508755927E+00
 C  -3.884670594155E+00  7.470800971194E+00  7.230525350277E+00
 C   7.671525819305E+00  3.882570271450E+00  9.291183428126E+00
 H   2.956875190261E+00  6.886004080604E+00  7.166063140450E+00
 H  -2.956867821887E+00  6.885950765615E+00  7.166095114544E+00
 H   7.671508909634E+00  3.957486453956E+00  1.038756277534E+01
 H   3.939618538843E+00 -8.336665023702E+00  8.220052650280E+00
 H  -3.939630841679E+00 -8.336736304150E+00  8.220076540376E+00
 H   3.833138478045E+00 -8.005428106311E+00  6.482866383982E+00
 H  -3.833116627475E+00 -8.005479493355E+00  6.482900074479E+00
 H   5.210824187924E+00  5.871263292692E+00  7.836808398419E+00
 H  -5.210835402568E+00  5.871204135981E+00  7.836783220819E+00
 H   4.890589424260E+00  5.937922307839E+00  6.087211176286E+00
 H  -4.890576954355E+00  5.937887872099E+00  6.087198144940E+00
 H   6.791052731216E+00  3.321407228196E+00  8.973323526345E+00
 H  -6.790984156247E+00  3.321441762946E+00  8.973327332006E+00
 H  -6.793084258117E+00  5.839465314732E+00  9.018326295342E+00
 H   6.793061690364E+00  5.839436835831E+00  9.018349886600E+00
 O   7.672213262016E+00  2.516136867688E+00  6.257674517252E+00
 C   7.671759886840E+00  1.472339177062E+00  7.158099296113E+00
 C   7.671570669085E+00  8.036601855900E-02  6.526567437254E+00
 H   6.805760524616E+00 -6.350962970000E-02  5.872127075533E+00
 H  -6.805623383562E+00 -6.366717650400E-02  5.872167810449E+00
 H   6.790038724349E+00  1.522532209499E+00  7.844605216776E+00
 H  -6.789838196609E+00  1.522157260272E+00  7.845012757367E+00
 H   7.671463893447E+00 -7.158835217260E-01  7.291223290233E+00
  249
Ceria 110-ly7-TEOS-2CH3                  E -4.5963055624928E+04 DE-2.1E-08(  6)
 CE  1.935940420813E+00  2.713262628313E+00  4.284291664928E+00
 CE -1.935961951680E+00  2.713254337570E+00  4.284316350491E+00
 CE -1.916329284555E+00 -2.695554353073E+00  4.265602556083E+00
 CE  1.916370910850E+00 -2.696128716112E+00  4.265521688750E+00
 CE  1.886051205260E+00 -8.131746225753E+00  4.271460580754E+00
 CE -1.885964316896E+00 -8.131727913605E+00  4.271377703842E+00
 CE  5.815128924410E+00  2.685145236923E+00  4.341102986920E+00
 CE -5.815250941817E+00  2.685157004160E+00  4.341277585067E+00
 CE -5.749319533705E+00 -2.720329014502E+00  4.252797274481E+00
 CE  5.749249145774E+00 -2.720370628266E+00  4.252767134089E+00
 CE  5.644098751019E+00 -8.061813353297E+00  4.279650285267E+00
 CE -5.644090523159E+00 -8.061787904924E+00  4.279660682703E+00
 O  -2.016595600000E-05  3.992510371278E+00  4.377979957563E+00
 O   4.050832776000E-03 -3.976566617591E+00  4.371091283696E+00
 O  -1.277838580000E-04 -6.858216240506E+00  4.382295946068E+00
 O  -1.412600000000E-07  6.877948898662E+00  4.420050681739E+00
 O  -1.235205633000E-03 -1.433968365368E+00  4.387646572114E+00
 O   5.179482000000E-06  1.448802822720E+00  4.387155548260E+00
 O   3.848914512996E+00  4.016520505593E+00  4.426012311912E+00
 O  -3.848871846523E+00  4.016494992302E+00  4.426027074526E+00
 O  -3.826453561298E+00 -3.978751092064E+00  4.349123757715E+00
 O   3.827114943052E+00 -3.979016554256E+00  4.348876429646E+00
 O   3.823242202915E+00 -6.829627908075E+00  4.410477744088E+00
 O  -3.823235382632E+00 -6.829407598448E+00  4.410430834814E+00
 O  -3.799561307552E+00  6.909578094802E+00  4.307500474815E+00
 O   3.799551279636E+00  6.909521511899E+00  4.307472252539E+00
 O   3.848743903421E+00 -1.441215988736E+00  4.391039839377E+00
 O  -3.847800933610E+00 -1.441236036096E+00  4.391179646620E+00
 O  -3.839593544609E+00  1.452514171542E+00  4.405783327394E+00
 O   3.839559150829E+00  1.452530379293E+00  4.405861429759E+00
 O   7.671404314550E+00  3.967873890857E+00  4.169141917725E+00
 O   7.671699629053E+00 -4.096691646739E+00  4.382906051202E+00
 O   7.671554456600E+00 -7.092993949892E+00  4.283006874799E+00
 O   7.671490041732E+00  6.526409138175E+00  4.775486414178E+00
 O   7.671636097224E+00 -1.561580806535E+00  4.253457940989E+00
 O   7.671405726221E+00  1.403298039083E+00  4.044475471936E+00
 CE -5.861312600000E-05  1.685823276700E-02  2.609540893682E+00
 CE  4.796755000000E-06  5.411270715471E+00  2.607658520201E+00
 CE  3.734147510000E-04 -5.407229903458E+00  2.591770740228E+00
 CE  3.842704550917E+00  1.187320136000E-02  2.605756782527E+00
 CE -3.842745283766E+00  1.198733608700E-02  2.605745043333E+00
 CE  3.846103696910E+00  5.402625311990E+00  2.614319897646E+00
 CE -3.846127357240E+00  5.402623666898E+00  2.614359127072E+00
 CE -3.811590140914E+00 -5.394068892518E+00  2.571764319359E+00
 CE  3.811907929962E+00 -5.394075978614E+00  2.571587433318E+00
 CE  7.671471891648E+00 -2.604472507300E-02  2.522819709909E+00
 CE  7.671484080002E+00  5.395315634409E+00  2.559620012690E+00
 CE  7.671525345628E+00 -5.426513220742E+00  2.590312272091E+00
 O   1.921658669563E+00  1.373361152342E+00  2.554188862004E+00
 O  -1.921720873021E+00  1.373312545859E+00  2.554125789854E+00
 O  -1.916798710806E+00 -1.358474615626E+00  2.548227405236E+00
 O   1.916555883796E+00 -1.358226372979E+00  2.548359013229E+00
 O   1.887683691071E+00  6.790218814529E+00  2.543159587082E+00
 O  -1.887669326881E+00  6.790188589577E+00  2.543126486979E+00
 O  -1.918411353356E+00 -6.783414000300E+00  2.547429668553E+00
 O   1.918487860022E+00 -6.783495120771E+00  2.547545213081E+00
 O   1.908162738298E+00 -4.047459726562E+00  2.529848389250E+00
 O  -1.906762750046E+00 -4.047408528122E+00  2.531497419265E+00
 O  -1.935787077910E+00  4.060571919077E+00  2.557724022782E+00
 O   1.935755305052E+00  4.060586970791E+00  2.557724100004E+00
 O   5.690812574593E+00  1.361240748528E+00  2.513918871752E+00
 O  -5.690870153765E+00  1.361235628493E+00  2.513931314987E+00
 O  -5.727329138542E+00 -1.376340801697E+00  2.516075801149E+00
 O   5.727463043595E+00 -1.376340786353E+00  2.515915511849E+00
 O   5.838154846534E+00  6.820907670446E+00  2.623550077579E+00
 O  -5.838177214811E+00  6.820928064651E+00  2.623566969543E+00
 O  -5.707927851160E+00 -6.746298469282E+00  2.535780330689E+00
 O   5.708085457377E+00 -6.746393647257E+00  2.535760056080E+00
 O   5.754573957112E+00 -4.055543060276E+00  2.526651526217E+00
 O  -5.754281587299E+00 -4.055518578523E+00  2.526778160892E+00
 O  -5.721883834954E+00  4.068574688047E+00  2.537183189197E+00
 O   5.721845892241E+00  4.068553824080E+00  2.537134817663E+00
 CE  1.917126765184E+00  2.712096725255E+00  6.584847512220E-01
 CE -1.917134860017E+00  2.712119306299E+00  6.584728481110E-01
 CE -1.913075571433E+00 -2.697011606186E+00  6.467013689320E-01
 CE  1.913246216772E+00 -2.696975351258E+00  6.466551205140E-01
 CE  1.917400832668E+00  8.131958293816E+00  6.599947465590E-01
 CE -1.917307989632E+00  8.131983930052E+00  6.599873531480E-01
 CE  5.744723532891E+00  2.704599711156E+00  6.756721742360E-01
 CE -5.744771046933E+00  2.704622505604E+00  6.757077268200E-01
 CE -5.746677504274E+00 -2.712772109824E+00  6.399974867770E-01
 CE  5.746765105462E+00 -2.712779821046E+00  6.399603226210E-01
 CE  5.753782704177E+00  8.136618423578E+00  6.634803990360E-01
 CE -5.753765675504E+00  8.136626263138E+00  6.635094270930E-01
 O  -1.203854400000E-05  4.063965983241E+00  7.093667575960E-01
 O  -7.332591000000E-05 -4.054363870954E+00  6.868450189010E-01
 O   1.225041170000E-04 -6.786724693659E+00  7.024681097130E-01
 O  -1.951846000000E-06  6.789726660029E+00  6.847690770470E-01
 O  -1.269026430000E-04 -1.354993956521E+00  6.975703337620E-01
 O  -3.809067000000E-06  1.368572031425E+00  7.021124868480E-01
 O   3.824225780425E+00  4.061376755029E+00  6.899984878760E-01
 O  -3.824243916303E+00  4.061379574748E+00  6.900145335680E-01
 O  -3.827593687653E+00 -4.057984396230E+00  6.869490273030E-01
 O   3.828056850464E+00 -4.057932826230E+00  6.865401381960E-01
 O   3.825915535232E+00 -6.790642394366E+00  6.864218036120E-01
 O  -3.825884181701E+00 -6.790575753312E+00  6.864573499100E-01
 O  -3.865955999310E+00  6.785632787639E+00  7.369442086030E-01
 O   3.865968501265E+00  6.785603008531E+00  7.369075938330E-01
 O   3.825210480359E+00 -1.363508150840E+00  6.822693358510E-01
 O  -3.825148088380E+00 -1.363521121719E+00  6.822668751470E-01
 O  -3.813675307484E+00  1.365564407714E+00  6.786349604150E-01
 O   3.813625146640E+00  1.365556712846E+00  6.786315566760E-01
 O   7.671494658980E+00  4.057321637998E+00  7.053531292620E-01
 O   7.671608715477E+00 -4.078513083926E+00  6.888410528180E-01
 O   7.671527086667E+00 -6.802692594911E+00  7.155147535770E-01
 O   7.671509680582E+00  6.777246534991E+00  6.845564601830E-01
 O   7.671588441144E+00 -1.389795772362E+00  6.532477169020E-01
 O   7.671490664196E+00  1.363463918742E+00  6.738835107820E-01
 CE  3.107271000000E-06  7.455491715000E-03 -1.134538200637E+00
 CE  8.506002000000E-06  5.422953220639E+00 -1.129266876806E+00
 CE  4.847955900000E-05 -5.424382875283E+00 -1.133873150598E+00
 CE  3.833352790985E+00  3.804618192000E-03 -1.134598959684E+00
 CE -3.833344535908E+00  3.806578910000E-03 -1.134605293874E+00
 CE  3.838637377821E+00  5.422227920873E+00 -1.126148168101E+00
 CE -3.838637613237E+00  5.422234915358E+00 -1.126132947843E+00
 CE -3.831300894961E+00 -5.426911480575E+00 -1.139675638871E+00
 CE  3.831352624878E+00 -5.426893390969E+00 -1.139697231778E+00
 CE  7.671506592887E+00  5.406235853000E-03 -1.152333230278E+00
 CE  7.671497373053E+00  5.415963002264E+00 -1.138336955470E+00
 CE  7.671510312565E+00 -5.426291176820E+00 -1.134615934347E+00
 O   1.908720862268E+00  1.349622411314E+00 -1.168290965539E+00
 O  -1.908744981955E+00  1.349611107556E+00 -1.168287827066E+00
 O  -1.910862796714E+00 -1.341228491593E+00 -1.170134961613E+00
 O   1.910831785466E+00 -1.341143568837E+00 -1.170182213576E+00
 O   1.933138771426E+00  6.770120972158E+00 -1.151478069151E+00
 O  -1.933142123984E+00  6.770139185706E+00 -1.151470388282E+00
 O  -1.912890072474E+00 -6.772496811533E+00 -1.163771428263E+00
 O   1.912902635233E+00 -6.772508468918E+00 -1.163790809266E+00
 O   1.917569284344E+00 -4.079808805774E+00 -1.167286338902E+00
 O  -1.917584824657E+00 -4.079774215652E+00 -1.167248395905E+00
 O  -1.912349140931E+00  4.083292399068E+00 -1.162514211517E+00
 O   1.912342747660E+00  4.083284751889E+00 -1.162514660308E+00
 O   5.749351870632E+00  1.344477785634E+00 -1.166057907425E+00
 O  -5.749352305684E+00  1.344470247396E+00 -1.166056175484E+00
 O  -5.748350749868E+00 -1.344186404634E+00 -1.174670850152E+00
 O   5.748407262263E+00 -1.344152341527E+00 -1.174699294050E+00
 O   5.749789102566E+00  6.774160454701E+00 -1.156386238685E+00
 O  -5.749769282402E+00  6.774174994051E+00 -1.156375340003E+00
 O  -5.758352934292E+00 -6.775081197261E+00 -1.152170386234E+00
 O   5.758419803583E+00 -6.775098108929E+00 -1.152216034604E+00
 O   5.750742678205E+00 -4.086569680635E+00 -1.169917284237E+00
 O  -5.750576681291E+00 -4.086556593009E+00 -1.169849376141E+00
 O  -5.754162236708E+00  4.083561796211E+00 -1.158691906132E+00
 O   5.754159591183E+00  4.083555911328E+00 -1.158695720265E+00
 CE  1.917258144673E+00  2.713293344710E+00 -3.051097241514E+00
 CE -1.917256455135E+00  2.713297527186E+00 -3.051102542753E+00
 CE -1.916473824846E+00 -2.710795011826E+00 -3.054297492133E+00
 CE  1.916489317270E+00 -2.710798227816E+00 -3.054282933368E+00
 CE  1.917908971264E+00  8.135416114995E+00 -3.050008331737E+00
 CE -1.917893090836E+00  8.135407956390E+00 -3.050011728417E+00
 CE  5.750884973862E+00  2.712727663342E+00 -3.046959918003E+00
 CE -5.750887015069E+00  2.712731245132E+00 -3.046954831100E+00
 CE -5.752012845105E+00 -2.711988602260E+00 -3.055575835737E+00
 CE  5.752023543196E+00 -2.711985229617E+00 -3.055569863779E+00
 CE  5.753504900714E+00  8.135183801553E+00 -3.048989134048E+00
 CE -5.753507411516E+00  8.135183383692E+00 -3.048983873212E+00
 O  -1.016881600000E-05 -1.317106375687E+00 -3.047056379912E+00
 O  -6.037751000000E-06  1.321285303277E+00 -3.047201680834E+00
 O  -2.215138000000E-06  4.109864384903E+00 -3.044717574252E+00
 O  -9.740327000000E-06 -4.107540742757E+00 -3.044878188344E+00
 O   7.896750000000E-07 -6.744353303480E+00 -3.044750411117E+00
 O  -4.594012000000E-06  6.743609832101E+00 -3.035148765954E+00
 O   3.833500916669E+00 -1.319652561069E+00 -3.047614494410E+00
 O  -3.833497858524E+00 -1.319650686262E+00 -3.047615738742E+00
 O  -3.834241782749E+00  1.320742581902E+00 -3.045175352095E+00
 O   3.834241249775E+00  1.320750314204E+00 -3.045177773660E+00
 O   3.836085364152E+00  4.109253056200E+00 -3.039571474273E+00
 O  -3.836085732855E+00  4.109259007473E+00 -3.039564664906E+00
 O  -3.834782442039E+00 -4.109066617471E+00 -3.046015946437E+00
 O   3.834801958473E+00 -4.109047625786E+00 -3.046035048550E+00
 O   3.837182318625E+00 -6.745141083497E+00 -3.040977235531E+00
 O  -3.837170915413E+00 -6.745126493055E+00 -3.040952316234E+00
 O  -3.836768854818E+00  6.742636582390E+00 -3.042250200935E+00
 O   3.836772983340E+00  6.742630056116E+00 -3.042248815395E+00
 O   7.671516433613E+00 -1.318861201727E+00 -3.048656611454E+00
 O   7.671499502539E+00  1.320693277659E+00 -3.045954506787E+00
 O   7.671499732446E+00  4.105888093619E+00 -3.042770228387E+00
 O   7.671527596153E+00 -4.108776246899E+00 -3.043726409768E+00
 O   7.671514820418E+00 -6.744451608576E+00 -3.041279850495E+00
 O   7.671506214228E+00  6.741031778719E+00 -3.040427059549E+00
 CE  0.000000000000E+00  0.000000000000E+00 -4.794687825205E+00
 CE  0.000000000000E+00  5.424570039800E+00 -4.794687825205E+00
 CE  0.000000000000E+00 -5.424570039800E+00 -4.794687825205E+00
 CE  3.835750260160E+00  0.000000000000E+00 -4.794687825205E+00
 CE -3.835750260160E+00  0.000000000000E+00 -4.794687825205E+00
 CE  3.835750260160E+00  5.424570039800E+00 -4.794687825205E+00
 CE -3.835750260160E+00  5.424570039800E+00 -4.794687825205E+00
 CE -3.835750260160E+00 -5.424570039800E+00 -4.794687825205E+00
 CE  3.835750260160E+00 -5.424570039800E+00 -4.794687825205E+00
 CE  7.671500520300E+00  0.000000000000E+00 -4.794687825205E+00
 CE  7.671500520300E+00  5.424570039800E+00 -4.794687825205E+00
 CE  7.671500520300E+00 -5.424570039800E+00 -4.794687825205E+00
 O   1.917875130080E+00  1.356142509950E+00 -4.794687825205E+00
 O  -1.917875130080E+00  1.356142509950E+00 -4.794687825205E+00
 O  -1.917875130080E+00 -1.356142509950E+00 -4.794687825205E+00
 O   1.917875130080E+00 -1.356142509950E+00 -4.794687825205E+00
 O   1.917875130080E+00  6.780712549750E+00 -4.794687825205E+00
 O  -1.917875130080E+00  6.780712549750E+00 -4.794687825205E+00
 O  -1.917875130080E+00 -6.780712549750E+00 -4.794687825205E+00
 O   1.917875130080E+00 -6.780712549750E+00 -4.794687825205E+00
 O   1.917875130080E+00 -4.068427529850E+00 -4.794687825205E+00
 O  -1.917875130080E+00 -4.068427529850E+00 -4.794687825205E+00
 O  -1.917875130080E+00  4.068427529850E+00 -4.794687825205E+00
 O   1.917875130080E+00  4.068427529850E+00 -4.794687825205E+00
 O   5.753625390240E+00  1.356142509950E+00 -4.794687825205E+00
 O  -5.753625390240E+00  1.356142509950E+00 -4.794687825205E+00
 O  -5.753625390240E+00 -1.356142509950E+00 -4.794687825205E+00
 O   5.753625390240E+00 -1.356142509950E+00 -4.794687825205E+00
 O   5.753625390240E+00  6.780712549750E+00 -4.794687825205E+00
 O  -5.753625390240E+00  6.780712549750E+00 -4.794687825205E+00
 O  -5.753625390240E+00 -6.780712549750E+00 -4.794687825205E+00
 O   5.753625390240E+00 -6.780712549750E+00 -4.794687825205E+00
 O   5.753625390240E+00 -4.068427529850E+00 -4.794687825205E+00
 O  -5.753625390240E+00 -4.068427529850E+00 -4.794687825205E+00
 O  -5.753625390240E+00  4.068427529850E+00 -4.794687825205E+00
 O   5.753625390240E+00  4.068427529850E+00 -4.794687825205E+00
 SI  7.671512473835E+00  6.519499342137E+00  6.367839505559E+00
 O   6.271455477814E+00  7.364194023044E+00  6.802438604200E+00
 O  -6.271433088050E+00  7.364166353981E+00  6.802425298243E+00
 O   7.671467719190E+00  5.152764422008E+00  7.252123942679E+00
 C   5.065111863721E+00  6.546090549807E+00  6.986916839611E+00
 C  -5.065109285584E+00  6.546048052692E+00  6.986906313716E+00
 C   7.671496213284E+00  5.265191536352E+00  8.681426208848E+00
 C   3.884675543448E+00  7.470848217491E+00  7.230508755927E+00
 C  -3.884670594155E+00  7.470800971194E+00  7.230525350277E+00
 C   7.671525819305E+00  3.882570271450E+00  9.291183428126E+00
 H   2.956875190261E+00  6.886004080604E+00  7.166063140450E+00
 H  -2.956867821887E+00  6.885950765615E+00  7.166095114544E+00
 H   7.671508909634E+00  3.957486453956E+00  1.038756277534E+01
 H   3.939618538843E+00 -8.336665023702E+00  8.220052650280E+00
 H  -3.939630841679E+00 -8.336736304150E+00  8.220076540376E+00
 H   3.833138478045E+00 -8.005428106311E+00  6.482866383982E+00
 H  -3.833116627475E+00 -8.005479493355E+00  6.482900074479E+00
 H   5.210824187924E+00  5.871263292692E+00  7.836808398419E+00
 H  -5.210835402568E+00  5.871204135981E+00  7.836783220819E+00
 H   4.890589424260E+00  5.937922307839E+00  6.087211176286E+00
 H  -4.890576954355E+00  5.937887872099E+00  6.087198144940E+00
 H   6.791052731216E+00  3.321407228196E+00  8.973323526345E+00
 H  -6.790984156247E+00  3.321441762946E+00  8.973327332006E+00
 H  -6.793084258117E+00  5.839465314732E+00  9.018326295342E+00
 H   6.793061690364E+00  5.839436835831E+00  9.018349886600E+00
 O   7.672213262016E+00  2.516136867688E+00  6.257674517252E+00
 C   7.671759886840E+00  1.472339177062E+00  7.158099296113E+00
 C   7.671570669085E+00  8.036601855900E-02  6.526567437254E+00
 H   6.805760524616E+00 -6.350962970000E-02  5.872127075533E+00
 H  -6.805623383562E+00 -6.366717650400E-02  5.872167810449E+00
 H   6.790038724349E+00  1.522532209499E+00  7.844605216776E+00
 H  -6.789838196609E+00  1.522157260272E+00  7.845012757367E+00
 H   7.671463893447E+00 -7.158835217260E-01  7.291223290233E+00
