   33
TEOS                                    
 SI  4.557916000000E+00  4.558371938000E+00  4.555909875000E+00
 O   5.418908375000E+00  5.530339500000E+00  5.610858063000E+00
 O   3.502876625000E+00  3.585401313000E+00  5.417905313000E+00
 O   5.612864188000E+00  3.585401313000E+00  3.693914438000E+00
 O   3.694917500000E+00  5.530339500000E+00  3.500870500000E+00
 C   6.128711875000E+00  6.872072375000E+00  8.186813750000E+00
 C   6.793742313000E+00  7.961124688000E+00  8.999659125000E+00
 C   2.504920625000E+00  4.184412000000E+00  6.232756813000E+00
 C   1.691892875000E+00  3.094356625000E+00  6.897878438000E+00
 C   6.611914438000E+00  4.186418125000E+00  2.881889750000E+00
 C   7.425945250000E+00  3.097365813000E+00  2.215856250000E+00
 C   2.877877500000E+00  4.931420000000E+00  2.505923688000E+00
 C   2.212755875000E+00  6.020381125000E+00  1.691892875000E+00
 H   7.429775125000E+00  7.534093625000E+00  9.780771250000E+00
 H   6.042813250000E+00  8.606093875000E+00  9.468818813000E+00
 H   7.406704688000E+00  8.602993500000E+00  8.357790313000E+00
 H   6.902711375000E+00  6.245067125000E+00  7.725769750000E+00
 H   5.519761750000E+00  6.247985125000E+00  8.851753000000E+00
 H   2.967879563000E+00  4.809411125000E+00  7.006756313000E+00
 H   1.838887125000E+00  4.809411125000E+00  5.624900938000E+00
 H   2.333944063000E+00  2.452396625000E+00  7.508834688000E+00
 H   9.118750000000E-01  3.521387688000E+00  7.534914313000E+00
 H   1.220909438000E+00  2.452396625000E+00  6.145855125000E+00
 H   7.894922563000E+00  2.452396625000E+00  2.966876500000E+00
 H   8.206875000000E+00  3.525399938000E+00  1.580917688000E+00
 H   6.783894063000E+00  2.456408875000E+00  1.601890813000E+00
 H   7.276944875000E+00  4.809411125000E+00  3.491842938000E+00
 H   6.150870438000E+00  4.813332188000E+00  2.108893313000E+00
 H   3.483909625000E+00  4.334415438000E+00  1.839890188000E+00
 H   2.103878000000E+00  4.307423938000E+00  2.970888750000E+00
 H   1.603896938000E+00  6.665441500000E+00  2.333944063000E+00
 H   2.964870375000E+00  6.661338063000E+00  1.218903313000E+00
 H   1.573896250000E+00  5.593441250000E+00  9.138811250000E-01
   33
TEOS                                     E -9.0671860419490E+02 DE 5.1E-05( 65)
 SI  4.580900035753E+00  4.557256204764E+00  4.565749481641E+00
 O   5.448758179484E+00  5.514497094649E+00  5.620370252981E+00
 O   3.518277661697E+00  3.587748726708E+00  5.409403741616E+00
 O   5.629421298351E+00  3.580683111148E+00  3.712926046842E+00
 O   3.735280941533E+00  5.536678441140E+00  3.511949747105E+00
 C   6.131811640222E+00  6.821641710780E+00  8.188782677454E+00
 C   6.734032138449E+00  7.970719482101E+00  8.971755826993E+00
 C   2.533157145334E+00  4.189642647358E+00  6.238839497455E+00
 C   1.705072002009E+00  3.101067795379E+00  6.889858496586E+00
 C   6.612404183340E+00  4.175746340311E+00  2.873598070709E+00
 C   7.411724771089E+00  3.080163486078E+00  2.198338623346E+00
 C   2.889738730940E+00  4.945130588825E+00  2.533640438189E+00
 C   2.230442295175E+00  6.040823577703E+00  1.721705435575E+00
 H   7.366969817520E+00  7.593434080361E+00  9.784382072588E+00
 H   5.951231918707E+00  8.606768231609E+00  9.403608615380E+00
 H   7.343590607080E+00  8.609971313072E+00  8.323129424877E+00
 H   6.914340658622E+00  6.205268814486E+00  7.728873367284E+00
 H   5.492171888806E+00  6.202619041570E+00  8.831274746877E+00
 H   3.011607485883E+00  4.797021724516E+00  7.018908051231E+00
 H   1.876855381485E+00  4.838501832044E+00  5.643436543915E+00
 H   2.338817850243E+00  2.440133171275E+00  7.489641039832E+00
 H   9.342456700933E-01  3.531813183614E+00  7.536344384140E+00
 H   1.219929169588E+00  2.479062284665E+00  6.129756671124E+00
 H   7.897728416797E+00  2.441424217271E+00  2.943931649798E+00
 H   8.179176879121E+00  3.504832004880E+00  1.543946671968E+00
 H   6.756973976738E+00  2.435793993074E+00  1.601318707648E+00
 H   7.288368590546E+00  4.805750149016E+00  3.465216287866E+00
 H   6.132723189431E+00  4.799594307587E+00  2.108209123972E+00
 H   3.475046993385E+00  4.325310734618E+00  1.864382439751E+00
 H   2.114149971803E+00  4.336064607096E+00  3.017415935272E+00
 H   1.640513199630E+00  6.699863817004E+00  2.367634340598E+00
 H   2.986018404239E+00  6.664942366327E+00  1.231634114950E+00
 H   1.572981849907E+00  5.617680611972E+00  9.562595464367E-01
   33
TEOS                                     E -9.0672534647566E+02 DE-1.2E-08( 19)
 SI  4.617471212522E+00  4.616096449551E+00  4.629160467508E+00
 O   5.512367944738E+00  5.538861552115E+00  5.663086279615E+00
 O   3.551362110473E+00  3.627718956890E+00  5.423079153935E+00
 O   5.647886284063E+00  3.629811972568E+00  3.791958450613E+00
 O   3.779978132635E+00  5.575981552005E+00  3.560731625708E+00
 C   6.223081550835E+00  6.674907155831E+00  8.163399486886E+00
 C   6.652458098553E+00  7.938428097637E+00  8.871521455080E+00
 C   2.548842014491E+00  4.210088975010E+00  6.255072262558E+00
 C   1.711538046053E+00  3.104872343849E+00  6.876941374101E+00
 C   6.607613040133E+00  4.200442942293E+00  2.893875698154E+00
 C   7.381820749889E+00  3.082935716408E+00  2.215166018704E+00
 C   2.917765434607E+00  4.968346364504E+00  2.593634408546E+00
 C   2.259140196127E+00  6.051064588598E+00  1.754432757133E+00
 H   7.278103217969E+00  7.648890895099E+00  9.738939604735E+00
 H   5.805572105741E+00  8.534115661811E+00  9.249408932588E+00
 H   7.260659808091E+00  8.584812102790E+00  8.231418475971E+00
 H   6.991371919397E+00  6.096856737156E+00  7.652823101936E+00
 H   5.420620791175E+00  6.077787461261E+00  8.662420689113E+00
 H   3.024330533035E+00  4.813764079903E+00  7.045680985461E+00
 H   1.908165255193E+00  4.882807661784E+00  5.660055957650E+00
 H   2.337523046942E+00  2.436559985020E+00  7.478021426676E+00
 H   9.335948751928E-01  3.529220134398E+00  7.522756945925E+00
 H   1.229603755283E+00  2.499028365859E+00  6.101061131622E+00
 H   7.882414527850E+00  2.451631684968E+00  2.957611594300E+00
 H   8.141226087983E+00  3.498850817039E+00  1.541587020372E+00
 H   6.711854344808E+00  2.441479725003E+00  1.631494705498E+00
 H   7.300341003983E+00  4.848824417730E+00  3.453724653134E+00
 H   6.097814958879E+00  4.823097492248E+00  2.140285876237E+00
 H   3.495008356747E+00  4.298672970451E+00  1.941866911084E+00
 H   2.147246374192E+00  4.363733907105E+00  3.099953688632E+00
 H   1.661666175103E+00  6.720509305725E+00  2.382999923224E+00
 H   3.013670311757E+00  6.661552690348E+00  1.244918096688E+00
 H   1.602350678561E+00  5.605896930041E+00  9.971329126141E-01
   33
TEOS                                     E -9.0674171241200E+02 DE-1.4E-08( 17)
 SI  4.638354158234E+00  4.675816982830E+00  4.697537514184E+00
 O   5.559310253560E+00  5.568804974420E+00  5.695178735100E+00
 O   3.573131103026E+00  3.682732046790E+00  5.446478327332E+00
 O   5.653046479423E+00  3.680677328451E+00  3.885630330911E+00
 O   3.826169287261E+00  5.628728010333E+00  3.630561620970E+00
 C   6.232767395179E+00  6.376460243600E+00  8.162464298305E+00
 C   6.483414623867E+00  7.876387445080E+00  8.658653907699E+00
 C   2.560357044164E+00  4.258050688928E+00  6.269736214174E+00
 C   1.719452707107E+00  3.145434375041E+00  6.873961886735E+00
 C   6.604825867357E+00  4.231486114317E+00  2.959573832312E+00
 C   7.343269974059E+00  3.094014333044E+00  2.269466334632E+00
 C   2.980206328980E+00  5.008512273635E+00  2.654481860419E+00
 C   2.316362656450E+00  6.080686438999E+00  1.804600560186E+00
 H   7.325910363263E+00  7.802650146606E+00  9.468850603366E+00
 H   5.552460689721E+00  8.314784972243E+00  9.110408964089E+00
 H   6.856999216956E+00  8.621431083092E+00  7.889036800261E+00
 H   7.056071682683E+00  6.007404478748E+00  7.469815901904E+00
 H   5.662029405569E+00  5.648583991138E+00  8.718617793018E+00
 H   3.029106696952E+00  4.867228698324E+00  7.063361893761E+00
 H   1.931379980669E+00  4.941139101567E+00  5.669640315094E+00
 H   2.338691082281E+00  2.480596404886E+00  7.484943227259E+00
 H   9.298889956279E-01  3.567204124718E+00  7.509565484955E+00
 H   1.248532594089E+00  2.543940870901E+00  6.088901821551E+00
 H   7.857787371727E+00  2.465549109437E+00  3.004383068744E+00
 H   8.092062392018E+00  3.498797303229E+00  1.573919692755E+00
 H   6.650890744815E+00  2.460119167288E+00  1.702680495553E+00
 H   7.312571830082E+00  4.879763879199E+00  3.502596591744E+00
 H   6.079731655111E+00  4.865453828813E+00  2.222846118131E+00
 H   3.577881325001E+00  4.325385400064E+00  2.020601445662E+00
 H   2.221475485487E+00  4.384965395372E+00  3.157538454029E+00
 H   1.697617322894E+00  6.741371263208E+00  2.421009173249E+00
 H   3.067084556896E+00  6.695394198573E+00  1.297269609867E+00
 H   1.675621672490E+00  5.618095020125E+00  1.041909194048E+00
   33
TEOS                                     E -9.0673717555208E+02 DE-1.0E-08( 17)
 SI  4.624480111442E+00  4.646273044648E+00  4.658119711397E+00
 O   5.523459019507E+00  5.559694333859E+00  5.677408947867E+00
 O   3.560093086616E+00  3.649164702372E+00  5.426367838874E+00
 O   5.652819656148E+00  3.657036427958E+00  3.834652462885E+00
 O   3.794915507962E+00  5.596171730176E+00  3.585682658530E+00
 C   6.222022159997E+00  6.605907343673E+00  8.150103321591E+00
 C   6.613755821352E+00  7.910364533231E+00  8.807979575944E+00
 C   2.551323764502E+00  4.222408383037E+00  6.256795989817E+00
 C   1.717711642215E+00  3.110316492103E+00  6.871080122398E+00
 C   6.605209722843E+00  4.216353986459E+00  2.917436707933E+00
 C   7.364893545765E+00  3.089211073833E+00  2.236007053317E+00
 C   2.939312185861E+00  4.978714499649E+00  2.616999976824E+00
 C   2.275872064662E+00  6.053315960678E+00  1.770460226675E+00
 H   7.267658305158E+00  7.656436065685E+00  9.671902225194E+00
 H   5.757899784682E+00  8.483218997878E+00  9.197204354192E+00
 H   7.196713492792E+00  8.565329534037E+00  8.150540645974E+00
 H   6.992048753013E+00  6.073210005031E+00  7.585852338875E+00
 H   5.449547316929E+00  5.986715000249E+00  8.634939123643E+00
 H   3.022490152385E+00  4.829876062753E+00  7.048677904601E+00
 H   1.912565062685E+00  4.898198264466E+00  5.661506322506E+00
 H   2.344158600574E+00  2.444565909157E+00  7.473891844972E+00
 H   9.352285198444E-01  3.530485525754E+00  7.515414752023E+00
 H   1.239938375509E+00  2.506607333396E+00  6.091599002289E+00
 H   7.871980449508E+00  2.460740399504E+00  2.976111156733E+00
 H   8.120018404301E+00  3.500307382400E+00  1.553072299137E+00
 H   6.686991195692E+00  2.449794187197E+00  1.659240321146E+00
 H   7.304408092512E+00  4.869260522791E+00  3.465016443914E+00
 H   6.085003316626E+00  4.839618559743E+00  2.169937590843E+00
 H   3.525172503706E+00  4.300774391140E+00  1.974346739478E+00
 H   2.175447225302E+00  4.365600185139E+00  3.124251951808E+00
 H   1.670125056529E+00  6.721020743065E+00  2.392498216880E+00
 H   3.027074510068E+00  6.663792074731E+00  1.257071113008E+00
 H   1.624125536313E+00  5.597166037206E+00  1.014053130733E+00
   33
TEOS                                     E -9.0674604128629E+02 DE 6.3E-09( 15)
 SI  4.646991036321E+00  4.710706139183E+00  4.725395938968E+00
 O   5.556090039911E+00  5.599079822832E+00  5.716251527388E+00
 O   3.585265420353E+00  3.684214310945E+00  5.427720139859E+00
 O   5.669701184820E+00  3.715243150842E+00  3.920428417163E+00
 O   3.826090231866E+00  5.636863745276E+00  3.644881903645E+00
 C   6.202706306769E+00  6.584760698036E+00  8.047609747502E+00
 C   6.578577467549E+00  7.837110588987E+00  8.706455143852E+00
 C   2.562969151698E+00  4.231131074523E+00  6.258714916694E+00
 C   1.744199902527E+00  3.103720645263E+00  6.861960771910E+00
 C   6.602182652279E+00  4.246741443179E+00  2.956696952589E+00
 C   7.332184840054E+00  3.101410571893E+00  2.268905516970E+00
 C   2.983212789600E+00  4.997369647325E+00  2.672557344228E+00
 C   2.301058243660E+00  6.051663349697E+00  1.814592458838E+00
 H   7.169947106799E+00  7.538774333136E+00  9.593664308167E+00
 H   5.751304373005E+00  8.432055796053E+00  9.095588628752E+00
 H   7.246993699646E+00  8.461105844004E+00  8.096240495383E+00
 H   6.921414271852E+00  6.011064029187E+00  7.476085649639E+00
 H   5.279623342718E+00  6.025276354209E+00  8.399628969350E+00
 H   3.023688072073E+00  4.850596994720E+00  7.051356093389E+00
 H   1.922336191934E+00  4.910331565400E+00  5.666544788464E+00
 H   2.375915352663E+00  2.445570715045E+00  7.465762931223E+00
 H   9.544847323594E-01  3.514203035558E+00  7.507119615183E+00
 H   1.271653437735E+00  2.503874232666E+00  6.078390443693E+00
 H   7.852994601652E+00  2.477736313526E+00  3.002288740036E+00
 H   8.079287227112E+00  3.505429214822E+00  1.569650733672E+00
 H   6.641362079440E+00  2.467940057094E+00  1.702071112858E+00
 H   7.314268860368E+00  4.911449043251E+00  3.474241076241E+00
 H   6.057322919500E+00  4.868972150002E+00  2.222711693360E+00
 H   3.587650024444E+00  4.306350401592E+00  2.045312812367E+00
 H   2.237785296909E+00  4.359986424871E+00  3.180492623281E+00
 H   1.678843839290E+00  6.713417542045E+00  2.425594652611E+00
 H   3.039912575517E+00  6.663459426166E+00  1.287412670872E+00
 H   1.656445670578E+00  5.570041031672E+00  1.063893253854E+00
   33
TEOS                                     E -9.0675099407693E+02 DE 8.1E-08( 12)
 SI  4.679840782340E+00  4.732334830940E+00  4.775256921275E+00
 O   5.616802266187E+00  5.581779969729E+00  5.760396929625E+00
 O   3.607001274011E+00  3.695174822649E+00  5.435568626900E+00
 O   5.682956808790E+00  3.729912573803E+00  3.959508402718E+00
 O   3.871126721118E+00  5.671902364110E+00  3.705806931339E+00
 C   6.180084746012E+00  6.462881636488E+00  8.002872353337E+00
 C   6.480666360103E+00  7.809676681840E+00  8.560566446733E+00
 C   2.582669178411E+00  4.235650691029E+00  6.266640050763E+00
 C   1.759532421991E+00  3.107961204323E+00  6.860884602629E+00
 C   6.610338199101E+00  4.247693534419E+00  2.982310798895E+00
 C   7.316132622607E+00  3.095590408707E+00  2.279563243305E+00
 C   3.024584068006E+00  5.039141884388E+00  2.728317075477E+00
 C   2.334714321964E+00  6.094867564803E+00  1.880282836993E+00
 H   7.121106876120E+00  7.606318924404E+00  9.458862961874E+00
 H   5.626610076033E+00  8.375597536897E+00  8.943962589381E+00
 H   7.098164985323E+00  8.432990217530E+00  7.899646660858E+00
 H   6.889801712587E+00  5.889917771863E+00  7.435514912631E+00
 H   5.252074664410E+00  5.936908202964E+00  8.357052803559E+00
 H   3.040838534680E+00  4.855577645936E+00  7.062664617513E+00
 H   1.946793545628E+00  4.923720784586E+00  5.677355692251E+00
 H   2.385912332197E+00  2.446419943217E+00  7.465873781841E+00
 H   9.681465423696E-01  3.519660973168E+00  7.504591491965E+00
 H   1.285724592795E+00  2.515853321671E+00  6.072950637956E+00
 H   7.841253154931E+00  2.463963736416E+00  3.001848330288E+00
 H   8.060024383252E+00  3.497168473237E+00  1.574639768323E+00
 H   6.613265101234E+00  2.475639052361E+00  1.713388594676E+00
 H   7.332803979655E+00  4.904562078572E+00  3.492220686045E+00
 H   6.060029895351E+00  4.882235638238E+00  2.262408585987E+00
 H   3.631789452641E+00  4.348101947838E+00  2.097510853716E+00
 H   2.286883388534E+00  4.388593877136E+00  3.232303002927E+00
 H   1.710464745783E+00  6.749686134622E+00  2.495277709581E+00
 H   3.068323232286E+00  6.708153373217E+00  1.349098107261E+00
 H   1.688001976550E+00  5.612011891901E+00  1.131075063378E+00
   33
TEOS                                     E -9.0675747317682E+02 DE 5.5E-09( 13)
 SI  4.738015428285E+00  4.848333773344E+00  4.905971217719E+00
 O   5.733964492023E+00  5.649623875759E+00  5.868429845946E+00
 O   3.655908159970E+00  3.770492153715E+00  5.487608182178E+00
 O   5.705945641266E+00  3.821401074224E+00  4.068878658370E+00
 O   3.924559717860E+00  5.775661836673E+00  3.832717280435E+00
 C   6.156147324000E+00  6.185141861472E+00  7.875119465157E+00
 C   6.312906842271E+00  7.697999555315E+00  8.278626828159E+00
 C   2.593065763467E+00  4.277148303969E+00  6.288587703095E+00
 C   1.776221362511E+00  3.130998521661E+00  6.854329226068E+00
 C   6.611019780246E+00  4.300027922347E+00  3.053070545718E+00
 C   7.271503417435E+00  3.125073477191E+00  2.345989490182E+00
 C   3.108685979273E+00  5.101913523801E+00  2.842163869057E+00
 C   2.393964047877E+00  6.111261449531E+00  1.957209946236E+00
 H   7.019176098022E+00  7.634815930741E+00  9.202357276029E+00
 H   5.410297560058E+00  8.212659257521E+00  8.661741366009E+00
 H   6.876817861591E+00  8.325864799442E+00  7.568711727785E+00
 H   6.854023826442E+00  5.692898870599E+00  7.219648032394E+00
 H   5.341263767760E+00  5.642964441543E+00  8.238886109075E+00
 H   3.007823901413E+00  4.916823206275E+00  7.099835413903E+00
 H   1.960671660944E+00  4.958809329887E+00  5.686362919867E+00
 H   2.398330374414E+00  2.474474029022E+00  7.467798866173E+00
 H   9.636703164415E-01  3.525490122780E+00  7.485655841128E+00
 H   1.323820219368E+00  2.544819586775E+00  6.050567673039E+00
 H   7.812268178955E+00  2.498111392815E+00  3.058887611449E+00
 H   8.002184422609E+00  3.509595478674E+00  1.614858802172E+00
 H   6.545641472486E+00  2.512597966437E+00  1.801979706231E+00
 H   7.351633615949E+00  4.958777085049E+00  3.528395546028E+00
 H   6.045651835667E+00  4.935466230657E+00  2.346540333829E+00
 H   3.752996337175E+00  4.408418203910E+00  2.234861002806E+00
 H   2.389993869292E+00  4.420545182276E+00  3.337684211312E+00
 H   1.736219821783E+00  6.762767669240E+00  2.541358132514E+00
 H   3.110280661588E+00  6.726867661031E+00  1.406235646047E+00
 H   1.769789184556E+00  5.579805919325E+00  1.215153595888E+00
   33
TEOS                                     E -9.0677237503008E+02 DE-3.3E-08( 13)
 SI  4.711816429688E+00  4.816786359694E+00  4.953296198591E+00
 O   5.701386103084E+00  5.571410610260E+00  5.950034727773E+00
 O   3.622006163655E+00  3.705554459377E+00  5.478389113790E+00
 O   5.687576949199E+00  3.822948267785E+00  4.099021113485E+00
 O   3.917838214513E+00  5.786470906447E+00  3.911449420177E+00
 C   6.134160158754E+00  6.157068992505E+00  7.821163299134E+00
 C   6.404761608693E+00  7.741603298467E+00  8.031684851830E+00
 C   2.543712622067E+00  4.177740787176E+00  6.285272126301E+00
 C   1.713218721430E+00  3.000968687382E+00  6.783513043750E+00
 C   6.638915252029E+00  4.331982233434E+00  3.162913170720E+00
 C   7.298456853647E+00  3.179835053768E+00  2.417993872187E+00
 C   3.112102923133E+00  5.151164855400E+00  2.890999841107E+00
 C   2.405131559184E+00  6.193210794668E+00  2.044629048333E+00
 H   6.971605215858E+00  7.738197755056E+00  9.103298708783E+00
 H   5.573757393386E+00  8.485324379353E+00  8.211801209652E+00
 H   7.136425431272E+00  8.123999265685E+00  7.236427741497E+00
 H   6.764663942492E+00  5.498265511723E+00  7.280043055837E+00
 H   5.223241424803E+00  5.810416285954E+00  8.265924596167E+00
 H   2.943856586560E+00  4.783641862503E+00  7.133210420525E+00
 H   1.926181107737E+00  4.889361088530E+00  5.696679254831E+00
 H   2.322284958707E+00  2.318814116582E+00  7.383714613726E+00
 H   8.854786018574E-01  3.366811655711E+00  7.415734623840E+00
 H   1.278675278392E+00  2.448260447637E+00  5.940203290886E+00
 H   7.797420320313E+00  2.496057043673E+00  3.108025786022E+00
 H   8.062070503347E+00  3.587238598867E+00  1.742685294313E+00
 H   6.580505520045E+00  2.621163397937E+00  1.809773652201E+00
 H   7.368550338183E+00  4.936514251380E+00  3.705946657380E+00
 H   6.116959030441E+00  5.031244909145E+00  2.481768317558E+00
 H   3.764697888950E+00  4.480188261857E+00  2.268737788921E+00
 H   2.392326518993E+00  4.449074093207E+00  3.357067011247E+00
 H   1.739356449931E+00  6.816951390790E+00  2.648733161566E+00
 H   3.125585069145E+00  6.827959246744E+00  1.526830859060E+00
 H   1.789737803512E+00  5.691420824302E+00  1.279256200810E+00
   33
TEOS                                     E -9.0676939346342E+02 DE-7.2E-09(  9)
 SI  4.734741234738E+00  4.836665955524E+00  4.913565217865E+00
 O   5.726923922730E+00  5.627729599839E+00  5.884794743294E+00
 O   3.650530529601E+00  3.753835533368E+00  5.485007470563E+00
 O   5.705483228212E+00  3.818031328731E+00  4.074023311016E+00
 O   3.927782481501E+00  5.776128594029E+00  3.848860221981E+00
 C   6.143652390974E+00  6.180315801954E+00  7.853497085504E+00
 C   6.324567610738E+00  7.707207899398E+00  8.223173348791E+00
 C   2.589281339721E+00  4.255108652663E+00  6.291712684952E+00
 C   1.768432823772E+00  3.103349403699E+00  6.842928571558E+00
 C   6.619398373390E+00  4.305313436112E+00  3.075800393249E+00
 C   7.276358258503E+00  3.136278976840E+00  2.354977809965E+00
 C   3.107977389781E+00  5.113651077093E+00  2.856249726745E+00
 C   2.400011499065E+00  6.132982670139E+00  1.980002673531E+00
 H   6.971884992977E+00  7.653526717652E+00  9.201250969396E+00
 H   5.435200557476E+00  8.289866559380E+00  8.533535300698E+00
 H   6.952427500779E+00  8.265032400965E+00  7.504753107516E+00
 H   6.830027650896E+00  5.645047994038E+00  7.236629087462E+00
 H   5.296032406884E+00  5.687879898179E+00  8.230833062161E+00
 H   3.005498255309E+00  4.883846985590E+00  7.110854600472E+00
 H   1.960221205329E+00  4.946564598919E+00  5.695736253061E+00
 H   2.387823085542E+00  2.438625495199E+00  7.450688971218E+00
 H   9.553195303208E-01  3.492408373983E+00  7.477093889789E+00
 H   1.316705170665E+00  2.526727766449E+00  6.030558976403E+00
 H   7.810906547462E+00  2.495463732239E+00  3.059902290054E+00
 H   8.011427069697E+00  3.526218154229E+00  1.633011832296E+00
 H   6.548707029469E+00  2.536706204480E+00  1.799293554868E+00
 H   7.360171544325E+00  4.949422214600E+00  3.566205817860E+00
 H   6.062060352599E+00  4.957492330508E+00  2.377902286496E+00
 H   3.748482240772E+00  4.420350340348E+00  2.245491741406E+00
 H   2.386504589683E+00  4.434284955047E+00  3.349577152799E+00
 H   1.746689223103E+00  6.783379218641E+00  2.569318088715E+00
 H   3.120242774791E+00  6.747243271521E+00  1.433546204836E+00
 H   1.772990132191E+00  5.610963551644E+00  1.235445625479E+00
   33
TEOS                                     E -9.0677427391145E+02 DE-1.0E-08(  8)
 SI  4.736049651378E+00  4.796654670913E+00  4.899890010429E+00
 O   5.702560329060E+00  5.610764488836E+00  5.861746521590E+00
 O   3.671948808128E+00  3.744033687230E+00  5.532576610180E+00
 O   5.730509617480E+00  3.795678428726E+00  4.082294361322E+00
 O   3.935125139417E+00  5.755289458011E+00  3.860095978385E+00
 C   6.163443997906E+00  6.181430989426E+00  7.635541779964E+00
 C   6.299905113396E+00  7.669844484612E+00  8.190990387076E+00
 C   2.610626570100E+00  4.268064863664E+00  6.320916869417E+00
 C   1.774363015073E+00  3.126853454077E+00  6.860428765258E+00
 C   6.637029778162E+00  4.310066282522E+00  3.100940282925E+00
 C   7.290117261585E+00  3.154803857632E+00  2.358760035309E+00
 C   3.099803385788E+00  5.109031415557E+00  2.888665405915E+00
 C   2.419634564665E+00  6.144895654283E+00  2.025980196480E+00
 H   6.887411467778E+00  7.539096578740E+00  9.186245647320E+00
 H   5.340543989502E+00  8.191961492951E+00  8.474785260264E+00
 H   6.951289477333E+00  8.315278195741E+00  7.599841721360E+00
 H   6.894875788387E+00  5.590438353816E+00  7.176876984801E+00
 H   5.151402679061E+00  5.762849981923E+00  7.931643202894E+00
 H   3.020074085149E+00  4.888571790709E+00  7.146823813787E+00
 H   1.996258474240E+00  4.960380053324E+00  5.710052355578E+00
 H   2.381624778438E+00  2.467540182661E+00  7.487252277635E+00
 H   9.467157298171E-01  3.520524820778E+00  7.470324331483E+00
 H   1.345339333722E+00  2.542259123578E+00  6.040751343571E+00
 H   7.850513132756E+00  2.521723653446E+00  3.054785734854E+00
 H   8.000027378869E+00  3.548508232394E+00  1.611062283111E+00
 H   6.545953268165E+00  2.544718094262E+00  1.830762887631E+00
 H   7.383308501808E+00  4.943854856849E+00  3.598046212357E+00
 H   6.070602292439E+00  4.971624328509E+00  2.416040336767E+00
 H   3.723165484582E+00  4.411051001925E+00  2.279577840035E+00
 H   2.369068356952E+00  4.458016576864E+00  3.399203250080E+00
 H   1.784433748935E+00  6.802536940532E+00  2.622590942339E+00
 H   3.155948212628E+00  6.746259755500E+00  1.488222045602E+00
 H   1.784789530301E+00  5.643043943007E+00  1.282506396282E+00
   33
TEOS                                     E -9.0678399674905E+02 DE 7.4E-09(  9)
 SI  4.736679476212E+00  4.833303605687E+00  4.910302632467E+00
 O   5.641286659274E+00  5.676517733003E+00  5.902860501663E+00
 O   3.694967349727E+00  3.785196924283E+00  5.567588832538E+00
 O   5.767409896318E+00  3.845707252886E+00  4.145367015170E+00
 O   3.950086339255E+00  5.787214035659E+00  3.875919785618E+00
 C   6.096915821613E+00  6.069788490213E+00  7.510350891149E+00
 C   6.297718313759E+00  7.606067654082E+00  8.055349485506E+00
 C   2.611579050001E+00  4.295128875503E+00  6.338172942506E+00
 C   1.790725042448E+00  3.134996895925E+00  6.859562313872E+00
 C   6.648546320793E+00  4.359458825569E+00  3.135071786729E+00
 C   7.288811736047E+00  3.194905759876E+00  2.393289163830E+00
 C   3.125000784461E+00  5.117824243043E+00  2.917569058243E+00
 C   2.432912549976E+00  6.131680110254E+00  2.045064858009E+00
 H   6.876194873342E+00  7.448462090833E+00  9.049324134653E+00
 H   5.369638387855E+00  8.161088372495E+00  8.328209631689E+00
 H   6.933092594624E+00  8.232384616679E+00  7.445176277050E+00
 H   6.856772224615E+00  5.362438928176E+00  7.277149762491E+00
 H   5.039557027356E+00  5.806201391101E+00  7.927466898745E+00
 H   2.995238148808E+00  4.917890052113E+00  7.173213565647E+00
 H   1.997048877556E+00  4.975911774724E+00  5.715340713203E+00
 H   2.404755496305E+00  2.484633270868E+00  7.489148054280E+00
 H   9.480956789025E-01  3.508604840565E+00  7.460696593647E+00
 H   1.387093900228E+00  2.544683756203E+00  6.029806626288E+00
 H   7.853586827521E+00  2.567106939979E+00  3.089596828349E+00
 H   7.989366805862E+00  3.573416000392E+00  1.630332135593E+00
 H   6.530178844070E+00  2.581000882751E+00  1.887776690150E+00
 H   7.408263374315E+00  5.006260309995E+00  3.603615787969E+00
 H   6.059659827107E+00  5.005116455172E+00  2.451254605988E+00
 H   3.758971930541E+00  4.424745813346E+00  2.322990487189E+00
 H   2.404961358795E+00  4.467292736529E+00  3.443002976762E+00
 H   1.786664901378E+00  6.784607735845E+00  2.632416768318E+00
 H   3.163041115629E+00  6.737618874109E+00  1.505289605115E+00
 H   1.809641408305E+00  5.610394445142E+00  1.307944661573E+00
   33
TEOS                                     E -9.0681361733914E+02 DE 7.1E-09(  9)
 SI  4.817245168948E+00  4.835265987978E+00  5.165678067612E+00
 O   5.831397911345E+00  5.959923985026E+00  6.261909362475E+00
 O   3.657248579886E+00  3.755276044988E+00  5.540719938812E+00
 O   5.800647563838E+00  3.857276934324E+00  4.097014874110E+00
 O   4.002329727326E+00  5.827000618658E+00  3.902057658499E+00
 C   5.771630250395E+00  6.018753284930E+00  7.023667878396E+00
 C   6.369818766510E+00  7.445166166265E+00  8.024119295512E+00
 C   2.612992779593E+00  4.273234083648E+00  6.343395436042E+00
 C   1.782883256490E+00  3.125394002775E+00  6.854617703834E+00
 C   6.682393670443E+00  4.338786143113E+00  3.108003840928E+00
 C   7.269542772056E+00  3.170515585445E+00  2.393735018706E+00
 C   3.080598860807E+00  5.124359879162E+00  2.905728961941E+00
 C   2.418506876790E+00  6.153124437561E+00  2.027754869948E+00
 H   6.922784605419E+00  7.495148182008E+00  9.045459943353E+00
 H   5.224479395418E+00  8.104762592071E+00  8.345976602899E+00
 H   7.089151078448E+00  8.249654186723E+00  7.408239111504E+00
 H   6.591591008578E+00  5.577596802531E+00  7.535518778618E+00
 H   5.317992683619E+00  5.574975477631E+00  7.775405170809E+00
 H   3.010761081086E+00  4.923921757276E+00  7.151534647689E+00
 H   2.001447472363E+00  4.986264870310E+00  5.721412920251E+00
 H   2.398229220348E+00  2.493097375750E+00  7.496748589227E+00
 H   9.444865493888E-01  3.512087328810E+00  7.461765392937E+00
 H   1.376813568236E+00  2.559524499168E+00  6.042935310253E+00
 H   7.857574071316E+00  2.559467213668E+00  3.089635510036E+00
 H   7.976813038927E+00  3.571490400578E+00  1.630267331970E+00
 H   6.542724625762E+00  2.586947446489E+00  1.883672900351E+00
 H   7.347510316448E+00  4.976383496379E+00  3.594520363837E+00
 H   6.075034175905E+00  5.001689242757E+00  2.476961369692E+00
 H   3.760405004215E+00  4.371210740312E+00  2.278905705186E+00
 H   2.389241822991E+00  4.453418356948E+00  3.423559540861E+00
 H   1.775156554542E+00  6.797809506607E+00  2.637520819603E+00
 H   3.161897270692E+00  6.742073425076E+00  1.491161311404E+00
 H   1.793133214873E+00  5.616049638035E+00  1.286617844705E+00
