  225
Ceria 110-ly7-TEOS-2CH3                 
 O   2.226072589766E+00  2.506536703468E+00  4.045323845096E+00
 O  -2.228189327154E+00 -1.162087280891E+00  3.961095570998E+00
 O   1.541782926150E+00 -1.198727683362E+00  4.014448138596E+00
 O  -1.575047200235E+00  2.554471764014E+00  4.035283043857E+00
 O   2.035354807288E+00  6.242341279925E+00  4.054241819568E+00
 O  -1.595339297314E+00 -4.974119202035E+00  3.990597366848E+00
 O   2.128357020911E+00 -5.072146643430E+00  3.987025875490E+00
 O  -1.951371916759E+00  6.160870076761E+00  4.066917775476E+00
 O   6.221245293486E+00  9.737540434860E-01  3.937866445544E+00
 O  -6.117884918005E+00 -1.124914166812E+00  3.959858873855E+00
 O   5.423815281009E+00 -1.984232550484E+00  4.163693931172E+00
 O  -5.453613126017E+00  2.051104562411E+00  4.141653253486E+00
 O   5.796292303788E+00  4.040517334097E+00  3.874005009993E+00
 O  -4.676779564123E+00 -4.050876367523E+00  3.980474444292E+00
 O   5.858948865241E+00 -5.110367520717E+00  3.969724835747E+00
 O  -5.907971969075E+00  5.236315252418E+00  4.048548309684E+00
 CE  3.563539468600E-02  1.914959332884E+00  3.079250385114E+00
 CE -6.668545825000E-02 -1.882951459050E+00  3.071690895875E+00
 CE -2.356863964100E-02  5.747244774256E+00  3.047625734627E+00
 CE  6.373826665300E-02 -5.676122008987E+00  3.042592338475E+00
 CE  3.880146426527E+00  1.981555333249E+00  3.047015058729E+00
 CE -3.897592007968E+00 -1.934874170778E+00  3.095721227683E+00
 CE  3.794664612987E+00 -1.907850791808E+00  3.077395205573E+00
 CE -3.807960656719E+00  1.867767956639E+00  3.076954563372E+00
 CE  3.777895091822E+00  5.778747842174E+00  3.049942585574E+00
 CE -3.683008004546E+00 -5.548884096222E+00  3.065273709034E+00
 CE  3.835709838851E+00 -5.731198286833E+00  3.049100001993E+00
 CE -3.795269689103E+00  5.727972546958E+00  3.048582961522E+00
 CE  7.726642658910E+00  1.895224764353E+00  3.090984212607E+00
 CE  7.588804711511E+00 -1.805383643785E+00  3.092423318952E+00
 CE  7.698954353379E+00  5.658337870953E+00  3.059330825893E+00
 CE  7.529792452023E+00 -5.667188306501E+00  2.953324265733E+00
 O   1.905466712740E+00  1.881776908235E+00  1.621299989563E+00
 O  -1.850277432976E+00 -1.966851377820E+00  1.597567834776E+00
 O   1.941042565246E+00 -1.965266606730E+00  1.616711566746E+00
 O  -1.923622460448E+00  1.866400339303E+00  1.616658363670E+00
 O   1.856778745340E+00  5.717435816209E+00  1.621325941602E+00
 O  -1.873572109283E+00 -5.801596139032E+00  1.621851250994E+00
 O   1.898166672096E+00 -5.808102503285E+00  1.598005446020E+00
 O  -1.909744492794E+00  5.709220310453E+00  1.615879124518E+00
 O   5.714010061473E+00  2.000697511124E+00  1.624633379599E+00
 O  -5.736453180427E+00 -1.981409929955E+00  1.616584351245E+00
 O   5.716485924064E+00 -1.865249796804E+00  1.627188684429E+00
 O  -5.715836452297E+00  1.910131121505E+00  1.622054546464E+00
 O   5.759896880027E+00  5.759017987681E+00  1.725605369626E+00
 O  -5.756910594935E+00 -5.716319665706E+00  1.866359871528E+00
 O   5.747067692165E+00 -5.798781837157E+00  1.582064489155E+00
 O  -5.698023407331E+00  5.800869974358E+00  1.641280313626E+00
 O  -2.345299186400E-02 -7.737644611000E-03  1.902948921337E+00
 O   1.500999856600E-02  3.831809234127E+00  1.948900222039E+00
 O   5.606087313400E-02 -3.842306171651E+00  1.885161690516E+00
 O  -1.086521575700E-02  7.632822256774E+00  2.027500254493E+00
 O   3.816861800348E+00  3.003453883000E-02  1.969934514731E+00
 O  -3.869494267630E+00 -2.563553985000E-02  1.873194336007E+00
 O   3.775527314374E+00  3.873638344982E+00  1.854033767940E+00
 O  -3.715963476401E+00 -3.825707937741E+00  1.691510281303E+00
 O   3.854659355150E+00 -3.852203439435E+00  1.897652301000E+00
 O  -3.802229783343E+00  3.831337754117E+00  1.974421749254E+00
 O   3.771089378162E+00  7.643847232590E+00  1.876242658059E+00
 O  -3.831699508470E+00  7.685925409715E+00  2.094881299513E+00
 O   7.686104318234E+00  2.450699768100E-02  1.796562895846E+00
 O   7.749275143133E+00  3.851385037280E+00  1.848147879519E+00
 O   7.629756174240E+00 -3.769652019414E+00  1.911012558059E+00
 O   7.693820765412E+00  7.655023515938E+00  1.991222790628E+00
 CE  1.910753429832E+00 -8.981943753000E-03  4.627670856400E-01
 CE -1.928571723806E+00 -2.242120199400E-02  4.524465937200E-01
 CE  1.916200592462E+00  3.821284856985E+00  4.379907851110E-01
 CE -1.890499444162E+00 -3.819889357099E+00  4.002504867270E-01
 CE  1.924114928759E+00 -3.829734291366E+00  4.347768847800E-01
 CE -1.910448514394E+00  3.800456524148E+00  4.474616790610E-01
 CE  1.914593562928E+00  7.659778380875E+00  4.319587717000E-01
 CE -1.914168629975E+00  7.674796991488E+00  4.593143317940E-01
 CE  5.751598323560E+00  3.286676994500E-02  4.550318737500E-01
 CE -5.754765674110E+00 -9.177921431000E-03  4.499524189660E-01
 CE  5.756913601735E+00  3.846233681938E+00  4.520016101230E-01
 CE -5.743417047015E+00 -3.814119919325E+00  4.613622191010E-01
 CE  5.732084210962E+00 -3.784533745865E+00  4.286545441010E-01
 CE -5.739391102253E+00  3.821835540379E+00  4.502410917450E-01
 CE  5.740093760540E+00  7.648059850823E+00  4.501535872350E-01
 CE -5.749240749646E+00  7.701109669773E+00  5.156630830330E-01
 O   2.003497123000E-03 -2.360688110000E-03 -7.772926354500E-01
 O  -8.891396987000E-03  3.832529031443E+00 -7.668828855120E-01
 O   2.581266728300E-02 -3.840290686947E+00 -8.047904865440E-01
 O  -1.140504962300E-02  7.665106849788E+00 -7.403248110230E-01
 O   3.835198782221E+00  7.962480378000E-03 -7.586370735930E-01
 O  -3.838347797987E+00 -2.242605880000E-04 -7.921689265440E-01
 O   3.840909829778E+00  3.838685844073E+00 -7.900937202210E-01
 O  -3.843541236701E+00 -3.842308549481E+00 -8.470288313200E-01
 O   3.840425863415E+00 -3.826735091959E+00 -7.857674526120E-01
 O  -3.826365250680E+00  3.836246499221E+00 -7.558037616320E-01
 O   3.841292954880E+00  7.660095176389E+00 -7.787243968500E-01
 O  -3.840158305871E+00  7.674744036827E+00 -7.041932263630E-01
 O   7.660856578770E+00  4.844216851000E-03 -8.078452097430E-01
 O   7.680046335713E+00  3.846073542004E+00 -7.848126542990E-01
 O   7.660587071590E+00 -3.837157507279E+00 -7.696274561460E-01
 O   7.676298005540E+00  7.676815076800E+00 -7.293083876970E-01
 O   1.917560644443E+00  1.916213611889E+00 -9.541395045790E-01
 O  -1.915910420117E+00 -1.919820695106E+00 -9.735090879570E-01
 O   1.921011723732E+00 -1.913765961240E+00 -9.561677331710E-01
 O  -1.916527107170E+00  1.917672461374E+00 -9.541032687900E-01
 O   1.916639446430E+00  5.749164484226E+00 -9.574003631380E-01
 O  -1.915063536753E+00 -5.776422664609E+00 -9.588045467700E-01
 O   1.924278622787E+00 -5.769856917758E+00 -9.642655972460E-01
 O  -1.921433343693E+00  5.755169452976E+00 -9.479394669240E-01
 O   5.755326023227E+00  1.931312003224E+00 -9.451655224750E-01
 O  -5.760842090164E+00 -1.924600383074E+00 -9.520122264970E-01
 O   5.747242518287E+00 -1.909770583769E+00 -9.477660855680E-01
 O  -5.751848591467E+00  1.928664731066E+00 -9.520909325290E-01
 O   5.757723159515E+00  5.759192206677E+00 -9.104461236700E-01
 O  -5.757595426500E+00 -5.760493733202E+00 -8.528274217650E-01
 O   5.751271419101E+00 -5.755139196006E+00 -9.574289811550E-01
 O  -5.749468880941E+00  5.769916425850E+00 -9.285037037030E-01
 CE  2.488310000000E-05  1.908743727093E+00 -2.166722327973E+00
 CE  4.913685415000E-03 -1.911378505627E+00 -2.176093721395E+00
 CE -6.564947931000E-03  5.747690153518E+00 -2.166687995342E+00
 CE  3.339988867000E-03 -5.755694235950E+00 -2.174658834421E+00
 CE  3.836009675565E+00  1.919418192304E+00 -2.164770110135E+00
 CE -3.840461908211E+00 -1.919782580827E+00 -2.174074279610E+00
 CE  3.833521284796E+00 -1.907057109215E+00 -2.172119512469E+00
 CE -3.836488153500E+00  1.910599198943E+00 -2.168121695873E+00
 CE  3.835803390035E+00  5.748919057680E+00 -2.170959938213E+00
 CE -3.840754052030E+00 -5.748780623469E+00 -2.156303486108E+00
 CE  3.840612315866E+00 -5.754863336799E+00 -2.169760030186E+00
 CE -3.839212174197E+00  5.756395200741E+00 -2.152915055702E+00
 CE  7.673392640032E+00  1.919370336509E+00 -2.165826954157E+00
 CE  7.671316858983E+00 -1.910848350850E+00 -2.167349577463E+00
 CE  7.683904913509E+00  5.756502938929E+00 -2.154344747582E+00
 CE  7.670272021824E+00 -5.750847078385E+00 -2.147985346930E+00
 O   1.918083013639E+00  1.917873190551E+00 -3.614385533969E+00
 O  -1.914735415758E+00 -1.917468883197E+00 -3.625705421221E+00
 O   1.919667709959E+00 -1.915914053174E+00 -3.616419111396E+00
 O  -1.916310329142E+00  1.917965550274E+00 -3.613943815559E+00
 O   1.917118379246E+00  5.753326743771E+00 -3.612646029066E+00
 O  -1.919440761875E+00 -5.755080082404E+00 -3.612888782670E+00
 O   1.917022774870E+00 -5.754969360467E+00 -3.619081718836E+00
 O  -1.918165824095E+00  5.754384279426E+00 -3.606905539738E+00
 O   5.750433795473E+00  1.919204289239E+00 -3.614290481452E+00
 O  -5.756405486899E+00 -1.919235071100E+00 -3.620998049406E+00
 O   5.750553976459E+00 -1.916935850296E+00 -3.613380568526E+00
 O  -5.751693074202E+00  1.918733783892E+00 -3.616404997165E+00
 O   5.754662158593E+00  5.754060152652E+00 -3.595537679278E+00
 O  -5.755050070612E+00 -5.755642061184E+00 -3.576033209836E+00
 O   5.757984275833E+00 -5.755658152757E+00 -3.613336921223E+00
 O  -5.752646499920E+00  5.756405966448E+00 -3.601508590791E+00
 O   0.000000000000E+00  0.000000000000E+00 -3.390356274875E+00
 O   0.000000000000E+00  3.835750260159E+00 -3.390356274875E+00
 O   0.000000000000E+00 -3.835750260159E+00 -3.390356274875E+00
 O   0.000000000000E+00  7.671500520300E+00 -3.390356274875E+00
 O   3.835750260161E+00  0.000000000000E+00 -3.390356274875E+00
 O  -3.835750260161E+00  0.000000000000E+00 -3.390356274875E+00
 O   3.835750260161E+00  3.835750260159E+00 -3.390356274875E+00
 O  -3.835750260161E+00 -3.835750260159E+00 -3.390356274875E+00
 O   3.835750260161E+00 -3.835750260159E+00 -3.390356274875E+00
 O  -3.835750260161E+00  3.835750260159E+00 -3.390356274875E+00
 O   3.835750260161E+00  7.671500520300E+00 -3.390356274875E+00
 O  -3.835750260161E+00  7.671500520300E+00 -3.390356274875E+00
 O   7.671500520300E+00  0.000000000000E+00 -3.390356274875E+00
 O   7.671500520300E+00  3.835750260159E+00 -3.390356274875E+00
 O   7.671500520300E+00 -3.835750260159E+00 -3.390356274875E+00
 O   7.671500520300E+00  7.671500520300E+00 -3.390356274875E+00
 CE  1.917875130081E+00  0.000000000000E+00 -4.746498784825E+00
 CE -1.917875130081E+00  0.000000000000E+00 -4.746498784825E+00
 CE  1.917875130081E+00  3.835750260159E+00 -4.746498784825E+00
 CE -1.917875130081E+00 -3.835750260159E+00 -4.746498784825E+00
 CE  1.917875130081E+00 -3.835750260159E+00 -4.746498784825E+00
 CE -1.917875130081E+00  3.835750260159E+00 -4.746498784825E+00
 CE  1.917875130081E+00  7.671500520300E+00 -4.746498784825E+00
 CE -1.917875130081E+00  7.671500520300E+00 -4.746498784825E+00
 CE  5.753625390240E+00  0.000000000000E+00 -4.746498784825E+00
 CE -5.753625390240E+00  0.000000000000E+00 -4.746498784825E+00
 CE  5.753625390240E+00  3.835750260159E+00 -4.746498784825E+00
 CE -5.753625390240E+00 -3.835750260159E+00 -4.746498784825E+00
 CE  5.753625390240E+00 -3.835750260159E+00 -4.746498784825E+00
 CE -5.753625390240E+00  3.835750260159E+00 -4.746498784825E+00
 CE  5.753625390240E+00  7.671500520300E+00 -4.746498784825E+00
 CE -5.753625390240E+00  7.671500520300E+00 -4.746498784825E+00
 O   0.000000000000E+00  0.000000000000E+00 -6.100000000000E+00
 O   0.000000000000E+00  3.835750260159E+00 -6.100000000000E+00
 O   0.000000000000E+00 -3.835750260159E+00 -6.100000000000E+00
 O   0.000000000000E+00  7.671500520300E+00 -6.100000000000E+00
 O   3.835750260161E+00  0.000000000000E+00 -6.100000000000E+00
 O  -3.835750260161E+00  0.000000000000E+00 -6.100000000000E+00
 O   3.835750260161E+00  3.835750260159E+00 -6.100000000000E+00
 O  -3.835750260161E+00 -3.835750260159E+00 -6.100000000000E+00
 O   3.835750260161E+00 -3.835750260159E+00 -6.100000000000E+00
 O  -3.835750260161E+00  3.835750260159E+00 -6.100000000000E+00
 O   3.835750260161E+00  7.671500520300E+00 -6.100000000000E+00
 O  -3.835750260161E+00  7.671500520300E+00 -6.100000000000E+00
 O   7.671500520300E+00  0.000000000000E+00 -6.100000000000E+00
 O   7.671500520300E+00  3.835750260159E+00 -6.100000000000E+00
 O   7.671500520300E+00 -3.835750260159E+00 -6.100000000000E+00
 O   7.671500520300E+00  7.671500520300E+00 -6.100000000000E+00
 SI  6.288861415608E+00  7.697135386148E+00  5.428911220996E+00
 O   7.791010045565E+00  8.488820030216E+00  5.062479104494E+00
 O   6.913251137543E+00  6.271416557808E+00  5.994573562292E+00
 O   5.500454259722E+00  8.520834026615E+00  6.577826527140E+00
 C   9.136552504376E+00  7.943725453591E+00  5.040459204504E+00
 C   4.146346209461E+00  9.000355452295E+00  6.473430992910E+00
 C   7.635656636205E+00  6.178267507617E+00  7.238281026853E+00
 C   1.010832467055E+01  8.782495407069E+00  5.842208181500E+00
 C   4.068148949727E+00  1.051805284162E+01  6.435263143598E+00
 C   8.523310694995E+00  4.943883311889E+00  7.229882916174E+00
 H   1.112164147835E+01  8.368871595422E+00  5.684230154770E+00
 H   3.024199085634E+00  1.081153383039E+01  6.284236165022E+00
 H   9.239478438092E+00  5.002434547477E+00  8.060026377669E+00
 H   9.899301097259E+00  8.730368459464E+00  6.913242160749E+00
 H   1.010386284100E+01  9.830831720008E+00  5.523999445009E+00
 H   9.132981812485E+00  6.900973645005E+00  5.349741417501E+00
 H   9.460431272750E+00  7.916125472590E+00  3.973469376401E+00
 H   9.069777946366E+00  4.866617268052E+00  6.284253246767E+00
 H   7.937429238085E+00  4.029303213077E+00  7.364440353037E+00
 H   6.906074568410E+00  6.157815743373E+00  8.059999574296E+00
 H   8.243935807849E+00  7.087645593871E+00  7.374748841944E+00
 H   3.607935733347E+00  8.607070684212E+00  7.345520982531E+00
 H   3.650347176788E+00  8.540919119704E+00  5.597413318878E+00
 H   4.434071100565E+00  1.093781941173E+01  7.377790807559E+00
 H   4.671521513623E+00  1.093001551951E+01  5.622731362725E+00
 O   5.483711094836E+00  7.342654242869E+00  4.090562037294E+00
 C   5.659119980867E+00  3.712264801689E+00  5.253141488295E+00
 C   4.430036871898E+00  4.370326497371E+00  5.866597416939E+00
 H   3.511585422740E+00  4.026994256981E+00  5.364447734859E+00
 H   5.577619506698E+00  2.614084397676E+00  5.361164430360E+00
 H   6.559406673847E+00  4.004152591324E+00  5.802894326476E+00
 H   4.496010257456E+00  5.464227182127E+00  5.797775699985E+00
 H   4.325479758638E+00  4.121218456054E+00  6.928075805088E+00
  225
Ceria 110-ly7-TEOS-2CH3                 
 O   2.226072589766E+00  2.506536703468E+00  4.045323845096E+00
 O  -2.228189327154E+00 -1.162087280891E+00  3.961095570998E+00
 O   1.541782926150E+00 -1.198727683362E+00  4.014448138596E+00
 O  -1.575047200235E+00  2.554471764014E+00  4.035283043857E+00
 O   2.035354807288E+00  6.242341279925E+00  4.054241819568E+00
 O  -1.595339297314E+00 -4.974119202035E+00  3.990597366848E+00
 O   2.128357020911E+00 -5.072146643430E+00  3.987025875490E+00
 O  -1.951371916759E+00  6.160870076761E+00  4.066917775476E+00
 O   6.221245293486E+00  9.737540434855E-01  3.937866445544E+00
 O  -6.117884918005E+00 -1.124914166812E+00  3.959858873855E+00
 O   5.423815281009E+00 -1.984232550484E+00  4.163693931172E+00
 O  -5.453613126017E+00  2.051104562411E+00  4.141653253486E+00
 O   5.796292303788E+00  4.040517334097E+00  3.874005009993E+00
 O  -4.676779564123E+00 -4.050876367523E+00  3.980474444292E+00
 O   5.858948865241E+00 -5.110367520717E+00  3.969724835747E+00
 O  -5.907971969075E+00  5.236315252418E+00  4.048548309684E+00
 CE  3.563539468598E-02  1.914959332884E+00  3.079250385114E+00
 CE -6.668545825044E-02 -1.882951459050E+00  3.071690895875E+00
 CE -2.356863964093E-02  5.747244774256E+00  3.047625734627E+00
 CE  6.373826665264E-02 -5.676122008987E+00  3.042592338475E+00
 CE  3.880146426527E+00  1.981555333249E+00  3.047015058729E+00
 CE -3.897592007968E+00 -1.934874170778E+00  3.095721227683E+00
 CE  3.794664612987E+00 -1.907850791808E+00  3.077395205573E+00
 CE -3.807960656719E+00  1.867767956639E+00  3.076954563372E+00
 CE  3.777895091822E+00  5.778747842174E+00  3.049942585574E+00
 CE -3.683008004546E+00 -5.548884096222E+00  3.065273709034E+00
 CE  3.835709838851E+00 -5.731198286833E+00  3.049100001993E+00
 CE -3.795269689103E+00  5.727972546959E+00  3.048582961522E+00
 CE  7.726642658910E+00  1.895224764353E+00  3.090984212607E+00
 CE  7.588804711511E+00 -1.805383643785E+00  3.092423318952E+00
 CE  7.698954353379E+00  5.658337870953E+00  3.059330825893E+00
 CE  7.529792452023E+00 -5.667188306502E+00  2.953324265733E+00
 O   1.905466712740E+00  1.881776908235E+00  1.621299989563E+00
 O  -1.850277432976E+00 -1.966851377820E+00  1.597567834776E+00
 O   1.941042565246E+00 -1.965266606730E+00  1.616711566746E+00
 O  -1.923622460448E+00  1.866400339303E+00  1.616658363670E+00
 O   1.856778745340E+00  5.717435816209E+00  1.621325941602E+00
 O  -1.873572109283E+00 -5.801596139032E+00  1.621851250994E+00
 O   1.898166672096E+00 -5.808102503285E+00  1.598005446020E+00
 O  -1.909744492794E+00  5.709220310454E+00  1.615879124518E+00
 O   5.714010061473E+00  2.000697511124E+00  1.624633379599E+00
 O  -5.736453180427E+00 -1.981409929955E+00  1.616584351245E+00
 O   5.716485924064E+00 -1.865249796804E+00  1.627188684429E+00
 O  -5.715836452296E+00  1.910131121505E+00  1.622054546464E+00
 O   5.759896880027E+00  5.759017987681E+00  1.725605369626E+00
 O  -5.756910594935E+00 -5.716319665706E+00  1.866359871528E+00
 O   5.747067692165E+00 -5.798781837157E+00  1.582064489155E+00
 O  -5.698023407331E+00  5.800869974358E+00  1.641280313626E+00
 O  -2.345299186373E-02 -7.737644611368E-03  1.902948921337E+00
 O   1.500999856639E-02  3.831809234127E+00  1.948900222039E+00
 O   5.606087313372E-02 -3.842306171651E+00  1.885161690516E+00
 O  -1.086521575673E-02  7.632822256774E+00  2.027500254493E+00
 O   3.816861800348E+00  3.003453882953E-02  1.969934514731E+00
 O  -3.869494267630E+00 -2.563553985045E-02  1.873194336007E+00
 O   3.775527314374E+00  3.873638344982E+00  1.854033767940E+00
 O  -3.715963476401E+00 -3.825707937741E+00  1.691510281303E+00
 O   3.854659355150E+00 -3.852203439435E+00  1.897652301000E+00
 O  -3.802229783343E+00  3.831337754117E+00  1.974421749254E+00
 O   3.771089378162E+00  7.643847232591E+00  1.876242658059E+00
 O  -3.831699508470E+00  7.685925409716E+00  2.094881299513E+00
 O   7.686104318234E+00  2.450699768070E-02  1.796562895846E+00
 O   7.749275143134E+00  3.851385037280E+00  1.848147879519E+00
 O   7.629756174239E+00 -3.769652019414E+00  1.911012558059E+00
 O   7.693820765411E+00  7.655023515938E+00  1.991222790628E+00
 CE  1.910753429832E+00 -8.981943752941E-03  4.627670856400E-01
 CE -1.928571723806E+00 -2.242120199446E-02  4.524465937199E-01
 CE  1.916200592462E+00  3.821284856985E+00  4.379907851107E-01
 CE -1.890499444162E+00 -3.819889357099E+00  4.002504867272E-01
 CE  1.924114928759E+00 -3.829734291366E+00  4.347768847796E-01
 CE -1.910448514394E+00  3.800456524148E+00  4.474616790613E-01
 CE  1.914593562928E+00  7.659778380875E+00  4.319587716996E-01
 CE -1.914168629975E+00  7.674796991487E+00  4.593143317939E-01
 CE  5.751598323560E+00  3.286676994548E-02  4.550318737496E-01
 CE -5.754765674110E+00 -9.177921431110E-03  4.499524189663E-01
 CE  5.756913601735E+00  3.846233681938E+00  4.520016101231E-01
 CE -5.743417047015E+00 -3.814119919325E+00  4.613622191013E-01
 CE  5.732084210962E+00 -3.784533745864E+00  4.286545441008E-01
 CE -5.739391102253E+00  3.821835540379E+00  4.502410917447E-01
 CE  5.740093760540E+00  7.648059850822E+00  4.501535872350E-01
 CE -5.749240749646E+00  7.701109669774E+00  5.156630830332E-01
 O   2.003497122851E-03 -2.360688110355E-03 -7.772926354500E-01
 O  -8.891396987129E-03  3.832529031443E+00 -7.668828855124E-01
 O   2.581266728299E-02 -3.840290686947E+00 -8.047904865436E-01
 O  -1.140504962339E-02  7.665106849788E+00 -7.403248110230E-01
 O   3.835198782221E+00  7.962480377628E-03 -7.586370735933E-01
 O  -3.838347797987E+00 -2.242605884881E-04 -7.921689265443E-01
 O   3.840909829778E+00  3.838685844073E+00 -7.900937202206E-01
 O  -3.843541236701E+00 -3.842308549481E+00 -8.470288313198E-01
 O   3.840425863415E+00 -3.826735091959E+00 -7.857674526117E-01
 O  -3.826365250680E+00  3.836246499221E+00 -7.558037616319E-01
 O   3.841292954880E+00  7.660095176389E+00 -7.787243968497E-01
 O  -3.840158305871E+00  7.674744036827E+00 -7.041932263632E-01
 O   7.660856578770E+00  4.844216850669E-03 -8.078452097428E-01
 O   7.680046335713E+00  3.846073542004E+00 -7.848126542994E-01
 O   7.660587071590E+00 -3.837157507279E+00 -7.696274561458E-01
 O   7.676298005540E+00  7.676815076800E+00 -7.293083876965E-01
 O   1.917560644443E+00  1.916213611889E+00 -9.541395045788E-01
 O  -1.915910420117E+00 -1.919820695106E+00 -9.735090879573E-01
 O   1.921011723732E+00 -1.913765961240E+00 -9.561677331710E-01
 O  -1.916527107170E+00  1.917672461374E+00 -9.541032687904E-01
 O   1.916639446430E+00  5.749164484226E+00 -9.574003631380E-01
 O  -1.915063536753E+00 -5.776422664609E+00 -9.588045467699E-01
 O   1.924278622787E+00 -5.769856917758E+00 -9.642655972460E-01
 O  -1.921433343693E+00  5.755169452977E+00 -9.479394669241E-01
 O   5.755326023227E+00  1.931312003224E+00 -9.451655224755E-01
 O  -5.760842090164E+00 -1.924600383074E+00 -9.520122264969E-01
 O   5.747242518287E+00 -1.909770583769E+00 -9.477660855678E-01
 O  -5.751848591467E+00  1.928664731066E+00 -9.520909325291E-01
 O   5.757723159515E+00  5.759192206677E+00 -9.104461236704E-01
 O  -5.757595426500E+00 -5.760493733202E+00 -8.528274217651E-01
 O   5.751271419101E+00 -5.755139196006E+00 -9.574289811546E-01
 O  -5.749468880941E+00  5.769916425849E+00 -9.285037037027E-01
 CE  2.488309956042E-05  1.908743727093E+00 -2.166722327973E+00
 CE  4.913685414876E-03 -1.911378505627E+00 -2.176093721395E+00
 CE -6.564947931355E-03  5.747690153518E+00 -2.166687995342E+00
 CE  3.339988866926E-03 -5.755694235950E+00 -2.174658834421E+00
 CE  3.836009675565E+00  1.919418192304E+00 -2.164770110135E+00
 CE -3.840461908211E+00 -1.919782580827E+00 -2.174074279611E+00
 CE  3.833521284796E+00 -1.907057109215E+00 -2.172119512469E+00
 CE -3.836488153500E+00  1.910599198943E+00 -2.168121695873E+00
 CE  3.835803390035E+00  5.748919057680E+00 -2.170959938213E+00
 CE -3.840754052031E+00 -5.748780623469E+00 -2.156303486108E+00
 CE  3.840612315866E+00 -5.754863336799E+00 -2.169760030186E+00
 CE -3.839212174197E+00  5.756395200741E+00 -2.152915055702E+00
 CE  7.673392640032E+00  1.919370336509E+00 -2.165826954157E+00
 CE  7.671316858983E+00 -1.910848350850E+00 -2.167349577463E+00
 CE  7.683904913509E+00  5.756502938929E+00 -2.154344747582E+00
 CE  7.670272021824E+00 -5.750847078385E+00 -2.147985346930E+00
 O   1.918083013639E+00  1.917873190551E+00 -3.614385533969E+00
 O  -1.914735415758E+00 -1.917468883197E+00 -3.625705421221E+00
 O   1.919667709959E+00 -1.915914053174E+00 -3.616419111396E+00
 O  -1.916310329142E+00  1.917965550274E+00 -3.613943815559E+00
 O   1.917118379246E+00  5.753326743771E+00 -3.612646029066E+00
 O  -1.919440761875E+00 -5.755080082404E+00 -3.612888782670E+00
 O   1.917022774870E+00 -5.754969360467E+00 -3.619081718836E+00
 O  -1.918165824095E+00  5.754384279426E+00 -3.606905539738E+00
 O   5.750433795472E+00  1.919204289239E+00 -3.614290481452E+00
 O  -5.756405486899E+00 -1.919235071100E+00 -3.620998049406E+00
 O   5.750553976459E+00 -1.916935850296E+00 -3.613380568526E+00
 O  -5.751693074202E+00  1.918733783892E+00 -3.616404997165E+00
 O   5.754662158593E+00  5.754060152652E+00 -3.595537679278E+00
 O  -5.755050070612E+00 -5.755642061184E+00 -3.576033209836E+00
 O   5.757984275833E+00 -5.755658152757E+00 -3.613336921223E+00
 O  -5.752646499920E+00  5.756405966447E+00 -3.601508590791E+00
 O   0.000000000000E+00  0.000000000000E+00 -3.390356274875E+00
 O   0.000000000000E+00  3.835750260159E+00 -3.390356274875E+00
 O   0.000000000000E+00 -3.835750260159E+00 -3.390356274875E+00
 O   0.000000000000E+00  7.671500520300E+00 -3.390356274875E+00
 O   3.835750260161E+00  0.000000000000E+00 -3.390356274875E+00
 O  -3.835750260161E+00  0.000000000000E+00 -3.390356274875E+00
 O   3.835750260161E+00  3.835750260159E+00 -3.390356274875E+00
 O  -3.835750260161E+00 -3.835750260159E+00 -3.390356274875E+00
 O   3.835750260161E+00 -3.835750260159E+00 -3.390356274875E+00
 O  -3.835750260161E+00  3.835750260159E+00 -3.390356274875E+00
 O   3.835750260161E+00  7.671500520300E+00 -3.390356274875E+00
 O  -3.835750260161E+00  7.671500520300E+00 -3.390356274875E+00
 O   7.671500520300E+00  0.000000000000E+00 -3.390356274875E+00
 O   7.671500520300E+00  3.835750260159E+00 -3.390356274875E+00
 O   7.671500520300E+00 -3.835750260159E+00 -3.390356274875E+00
 O   7.671500520300E+00  7.671500520300E+00 -3.390356274875E+00
 CE  1.917875130081E+00  0.000000000000E+00 -4.746498784825E+00
 CE -1.917875130081E+00  0.000000000000E+00 -4.746498784825E+00
 CE  1.917875130081E+00  3.835750260159E+00 -4.746498784825E+00
 CE -1.917875130081E+00 -3.835750260159E+00 -4.746498784825E+00
 CE  1.917875130081E+00 -3.835750260159E+00 -4.746498784825E+00
 CE -1.917875130081E+00  3.835750260159E+00 -4.746498784825E+00
 CE  1.917875130081E+00  7.671500520300E+00 -4.746498784825E+00
 CE -1.917875130081E+00  7.671500520300E+00 -4.746498784825E+00
 CE  5.753625390240E+00  0.000000000000E+00 -4.746498784825E+00
 CE -5.753625390240E+00  0.000000000000E+00 -4.746498784825E+00
 CE  5.753625390240E+00  3.835750260159E+00 -4.746498784825E+00
 CE -5.753625390240E+00 -3.835750260159E+00 -4.746498784825E+00
 CE  5.753625390240E+00 -3.835750260159E+00 -4.746498784825E+00
 CE -5.753625390240E+00  3.835750260159E+00 -4.746498784825E+00
 CE  5.753625390240E+00  7.671500520300E+00 -4.746498784825E+00
 CE -5.753625390240E+00  7.671500520300E+00 -4.746498784825E+00
 O   0.000000000000E+00  0.000000000000E+00 -6.100000000000E+00
 O   0.000000000000E+00  3.835750260159E+00 -6.100000000000E+00
 O   0.000000000000E+00 -3.835750260159E+00 -6.100000000000E+00
 O   0.000000000000E+00  7.671500520300E+00 -6.100000000000E+00
 O   3.835750260161E+00  0.000000000000E+00 -6.100000000000E+00
 O  -3.835750260161E+00  0.000000000000E+00 -6.100000000000E+00
 O   3.835750260161E+00  3.835750260159E+00 -6.100000000000E+00
 O  -3.835750260161E+00 -3.835750260159E+00 -6.100000000000E+00
 O   3.835750260161E+00 -3.835750260159E+00 -6.100000000000E+00
 O  -3.835750260161E+00  3.835750260159E+00 -6.100000000000E+00
 O   3.835750260161E+00  7.671500520300E+00 -6.100000000000E+00
 O  -3.835750260161E+00  7.671500520300E+00 -6.100000000000E+00
 O   7.671500520300E+00  0.000000000000E+00 -6.100000000000E+00
 O   7.671500520300E+00  3.835750260159E+00 -6.100000000000E+00
 O   7.671500520300E+00 -3.835750260159E+00 -6.100000000000E+00
 O   7.671500520300E+00  7.671500520300E+00 -6.100000000000E+00
 SI  6.288861415608E+00  7.697135386148E+00  5.428911220996E+00
 O   7.791010045565E+00  8.488820030216E+00  5.062479104494E+00
 O   6.913251137543E+00  6.271416557807E+00  5.994573562292E+00
 O   5.500454259722E+00  8.520834026615E+00  6.577826527140E+00
 C   9.136552504376E+00  7.943725453591E+00  5.040459204504E+00
 C   4.146346209461E+00  9.000355452295E+00  6.473430992910E+00
 C   7.635656636205E+00  6.178267507617E+00  7.238281026853E+00
 C   1.010832467055E+01  8.782495407069E+00  5.842208181500E+00
 C   4.068148949727E+00  1.051805284162E+01  6.435263143598E+00
 C   8.523310694995E+00  4.943883311889E+00  7.229882916174E+00
 H   1.112164147835E+01  8.368871595422E+00  5.684230154770E+00
 H   3.024199085634E+00  1.081153383039E+01  6.284236165022E+00
 H   9.239478438091E+00  5.002434547477E+00  8.060026377669E+00
 H   9.899301097259E+00  8.730368459464E+00  6.913242160749E+00
 H   1.010386284100E+01  9.830831720008E+00  5.523999445010E+00
 H   9.132981812485E+00  6.900973645005E+00  5.349741417501E+00
 H   9.460431272750E+00  7.916125472590E+00  3.973469376401E+00
 H   9.069777946366E+00  4.866617268052E+00  6.284253246767E+00
 H   7.937429238085E+00  4.029303213077E+00  7.364440353037E+00
 H   6.906074568410E+00  6.157815743373E+00  8.059999574296E+00
 H   8.243935807849E+00  7.087645593872E+00  7.374748841944E+00
 H   3.607935733347E+00  8.607070684212E+00  7.345520982531E+00
 H   3.650347176788E+00  8.540919119704E+00  5.597413318878E+00
 H   4.434071100565E+00  1.093781941173E+01  7.377790807559E+00
 H   4.671521513623E+00  1.093001551951E+01  5.622731362725E+00
 O   5.483711094836E+00  7.342654242869E+00  4.090562037294E+00
 C   5.659119980867E+00  3.712264801689E+00  5.253141488295E+00
 C   4.430036871898E+00  4.370326497371E+00  5.866597416939E+00
 H   3.511585422740E+00  4.026994256981E+00  5.364447734859E+00
 H   5.577619506698E+00  2.614084397676E+00  5.361164430360E+00
 H   6.559406673847E+00  4.004152591324E+00  5.802894326476E+00
 H   4.496010257456E+00  5.464227182126E+00  5.797775699985E+00
 H   4.325479758638E+00  4.121218456054E+00  6.928075805088E+00
