  225
Ceria 110-ly7-TEOS-2CH3                 
 O  -2.392047380500E-02  2.169198763885E+00  5.361637657369E+00
 O   1.916529743294E+00 -1.115696933393E+00  5.405436173186E+00
 O  -1.913846329579E+00 -1.108093318877E+00  5.388681355155E+00
 O  -1.975922275402E+00  5.543319519040E+00  5.366372210691E+00
 O   5.753145568533E+00 -1.109942226610E+00  5.389176057070E+00
 O  -3.804300792763E+00 -4.375155058134E+00  5.345723359474E+00
 O   3.819354533325E+00 -4.416932038495E+00  5.399679309767E+00
 O   1.932498393298E+00  5.522107970102E+00  5.525079622741E+00
 O  -5.754620668477E+00 -1.116533901367E+00  5.387665565735E+00
 O   3.862676286488E+00  2.157045614042E+00  5.357923070745E+00
 O   6.744494375000E-03 -4.421970107630E+00  5.406773636522E+00
 O  -3.829817145835E+00  2.219613326769E+00  5.386660464710E+00
 O   7.636559722136E+00 -4.389483926463E+00  5.376641837070E+00
 O   7.666287032303E+00  2.217040440102E+00  5.388008773663E+00
 O  -1.873023686884E+00 -7.747123451200E+00  5.362691681117E+00
 O   1.917007340789E+00 -7.745804989933E+00  5.389913614662E+00
 CE -4.942766266000E-03 -1.681979487600E-02  4.635920728521E+00
 CE -1.929886846663E+00  3.318171602175E+00  4.636016942613E+00
 CE  3.841830278484E+00 -1.536495744400E-02  4.636490597779E+00
 CE -1.901841616326E+00 -3.303024911769E+00  4.635718722830E+00
 CE  1.920603661303E+00 -3.317799353237E+00  4.648925710432E+00
 CE  1.925178632155E+00  3.251124776385E+00  4.682961789551E+00
 CE -3.836075753686E+00  2.128215682000E-03  4.631324959316E+00
 CE  3.812509020497E+00 -6.637378692693E+00  4.638429439134E+00
 CE -7.670514371444E+00  2.146075370000E-04  4.632867110210E+00
 CE -3.764147200366E+00 -6.607738007370E+00  4.690749283252E+00
 CE -6.823051800300E-02  6.682940587975E+00  4.696215821681E+00
 CE  5.739312668994E+00 -3.305951294409E+00  4.639023457187E+00
 CE -5.756018859463E+00 -3.307460540269E+00  4.632439259930E+00
 CE  5.764253304025E+00  3.313621559495E+00  4.635995480448E+00
 CE  1.680261909500E-02 -6.638799698301E+00  4.641644837725E+00
 CE -5.754342641688E+00  3.321433877027E+00  4.633619057594E+00
 O  -1.934413583913E+00  1.100348730550E+00  3.840786350638E+00
 O   1.916261573159E+00  1.082274928789E+00  3.857784874949E+00
 O   6.315440251000E-03 -2.215222634885E+00  3.847742380658E+00
 O  -3.852644405885E+00  4.421800969338E+00  3.841446506330E+00
 O   5.773721570536E+00  1.098265678916E+00  3.838983382498E+00
 O  -1.893805906727E+00 -5.523078649588E+00  3.861951975965E+00
 O   1.913992288854E+00 -5.529861916017E+00  3.850011003688E+00
 O   3.817221603169E+00  4.438139510598E+00  3.895075870527E+00
 O  -5.753438067722E+00  1.107412415123E+00  3.854215696811E+00
 O   2.065524669400E-02  4.447133325338E+00  3.901819138654E+00
 O   3.831158564573E+00 -2.213595623975E+00  3.848373096246E+00
 O  -3.837413064427E+00 -2.189350201612E+00  3.837554418052E+00
 O   5.731731454885E+00 -5.522700849499E+00  3.865135737195E+00
 O  -7.671077979407E+00 -2.200193229185E+00  3.841683409846E+00
 O   1.913140643024E+00  7.724692499149E+00  3.905524305550E+00
 O  -7.657393925159E+00  4.420142676859E+00  3.844072114297E+00
 O  -2.842390786000E-03 -3.353457491000E-03  2.335244242696E+00
 O  -1.907069757052E+00  3.330108774262E+00  2.356959217819E+00
 O   3.838337152482E+00 -2.147201803000E-03  2.334625290823E+00
 O  -1.914907724922E+00 -3.317522459378E+00  2.335956576388E+00
 O   1.918866597091E+00 -3.321070937381E+00  2.334887169336E+00
 O   1.918151213112E+00  3.308422251999E+00  2.336965179073E+00
 O  -3.841432282742E+00  6.089478707000E-03  2.328812799232E+00
 O   3.830523841310E+00 -6.641434091747E+00  2.338818196815E+00
 O  -7.664374882571E+00  1.121170004000E-03  2.330373259224E+00
 O  -3.822810752855E+00 -6.634317048035E+00  2.345170881457E+00
 O  -1.420481381400E-02  6.653223567556E+00  2.345291749132E+00
 O   5.750511356806E+00 -3.318452761199E+00  2.337841572008E+00
 O  -5.753920391479E+00 -3.335266149886E+00  2.356468335273E+00
 O   5.744480673630E+00  3.327704867115E+00  2.354810147209E+00
 O   3.044226731000E-03 -6.643874848803E+00  2.337027122492E+00
 O  -5.754609612453E+00  3.315758831057E+00  2.331928447687E+00
 CE -1.916604040187E+00  1.107889104114E+00  1.532505354356E+00
 CE  1.917863539840E+00  1.108074887481E+00  1.534486180294E+00
 CE  2.591724103000E-03 -2.214799604449E+00  1.528126993005E+00
 CE -3.836447760924E+00  4.431860664258E+00  1.533527089365E+00
 CE  5.753185479488E+00  1.106562874660E+00  1.532194446598E+00
 CE -1.917893425133E+00 -5.535815278758E+00  1.536111379235E+00
 CE  1.916849927249E+00 -5.533246290556E+00  1.530364066295E+00
 CE  3.830778330409E+00  4.433616153211E+00  1.561043129495E+00
 CE -5.753510962699E+00  1.107672459712E+00  1.531315236234E+00
 CE  5.749081863000E-03  4.435229465485E+00  1.564161162236E+00
 CE  3.833782381995E+00 -2.214900664102E+00  1.529022447962E+00
 CE -3.833867492044E+00 -2.214127633970E+00  1.532153609632E+00
 CE  5.753237963548E+00 -5.535493401733E+00  1.537399963050E+00
 CE  7.669614763426E+00 -2.215335776506E+00  1.531984418641E+00
 CE  1.917170178800E+00  7.743487193338E+00  1.565860347927E+00
 CE -7.508963499932E-05 -8.856106940235E+00  1.534106767538E+00
 O  -3.173724253000E-03  2.217382879163E+00  7.607864678310E-01
 O   1.917856506268E+00 -1.106347870271E+00  7.520198303350E-01
 O  -1.917936077507E+00 -1.106011599744E+00  7.524634236280E-01
 O  -1.918855485669E+00  5.536230854102E+00  7.623256645030E-01
 O   5.754357602676E+00 -1.107286660387E+00  7.526407452140E-01
 O  -3.837755688749E+00 -4.427106454696E+00  7.615736158950E-01
 O   3.835729060115E+00 -4.428237798674E+00  7.527860110320E-01
 O   1.917759007199E+00  5.539537126469E+00  7.820123107230E-01
 O  -5.753318652544E+00 -1.115117202226E+00  7.551528500510E-01
 O   3.839031802310E+00  2.216908121017E+00  7.596476460110E-01
 O   1.987769459997E-04 -4.428117779015E+00  7.529897640810E-01
 O  -3.828834692059E+00  2.220905451104E+00  7.552166786490E-01
 O  -7.670159213634E+00 -4.426951747912E+00  7.616912287000E-01
 O   7.665327503180E+00  2.219072730686E+00  7.551748018120E-01
 O   5.753159500120E+00  5.535464540376E+00  7.608984916520E-01
 O   1.918030762605E+00 -7.750203154110E+00  7.539456644660E-01
 O  -1.917197839724E+00  1.107956082095E+00 -8.178275432670E-01
 O   1.917659925417E+00  1.109878146217E+00 -8.140725333530E-01
 O   4.200001950002E-04 -2.214741464688E+00 -8.188988987910E-01
 O  -3.835057199290E+00  4.430486306022E+00 -8.171986919740E-01
 O   5.753247498094E+00  1.107185063781E+00 -8.179932124120E-01
 O  -1.919574860911E+00 -5.537638463500E+00 -8.132792532490E-01
 O   1.917550325997E+00 -5.536214698171E+00 -8.181682320800E-01
 O   3.830652051767E+00  4.432465803641E+00 -8.046553423080E-01
 O  -5.753300781964E+00  1.107172002964E+00 -8.133521017670E-01
 O   4.595721294000E-03  4.433125331968E+00 -8.033643876450E-01
 O   3.835458675004E+00 -2.214646086925E+00 -8.188528589620E-01
 O  -3.835319655200E+00 -2.215586168248E+00 -8.178026805780E-01
 O  -1.915678651292E+00  7.749739600663E+00 -8.128368248620E-01
 O   7.671424475157E+00 -2.215756721594E+00 -8.175689540690E-01
 O   1.917556608732E+00  7.745409161790E+00 -8.034820361790E-01
 O  -7.262611209995E-04 -8.857312795944E+00 -8.168820318590E-01
 CE  9.275607060000E-04  2.219221140810E+00 -1.591201808432E+00
 CE  1.917924564972E+00 -1.105622015601E+00 -1.598337747352E+00
 CE -1.917504414126E+00 -1.106980824336E+00 -1.597304138259E+00
 CE -1.914209609539E+00  5.536370589318E+00 -1.590957493353E+00
 CE  5.753370154838E+00 -1.107286613446E+00 -1.597377668393E+00
 CE -3.838637242554E+00 -4.431793124686E+00 -1.590872702085E+00
 CE  3.836913964508E+00 -4.429578602113E+00 -1.597537730387E+00
 CE  1.917589967850E+00  5.537355326045E+00 -1.586432382858E+00
 CE -5.753468425672E+00 -1.108450137529E+00 -1.596099688194E+00
 CE  3.834719247941E+00  2.218713801974E+00 -1.591641343277E+00
 CE -1.112587095000E-03 -4.429498579601E+00 -1.598018786818E+00
 CE -3.834481036996E+00  2.215979099131E+00 -1.595875439249E+00
 CE  2.754671583000E-03  8.855513851288E+00 -1.591000765038E+00
 CE  7.670462070196E+00  2.215715328053E+00 -1.595884860093E+00
 CE  5.750083598328E+00  5.536151545697E+00 -1.591602541961E+00
 CE  1.917776272827E+00 -7.750078648991E+00 -1.596589626458E+00
 O   8.605705260000E-04  1.736685801000E-03 -2.397106444601E+00
 O  -1.915152815538E+00  3.324336804887E+00 -2.394833115743E+00
 O   3.834854275459E+00  1.684532599000E-03 -2.397182474862E+00
 O  -1.918305752246E+00 -3.322812822395E+00 -2.397002732098E+00
 O   1.917881157898E+00 -3.321472186719E+00 -2.398765236296E+00
 O   1.917624780025E+00  3.324612288473E+00 -2.394503859853E+00
 O  -3.836373002031E+00  9.170636430000E-04 -2.397322664902E+00
 O   3.837138373066E+00 -6.642737810341E+00 -2.396813558088E+00
 O  -7.670642744569E+00  7.872733180000E-04 -2.397361993082E+00
 O   3.834115458205E+00  6.643521405285E+00 -2.394483176739E+00
 O   1.534427437000E-03  6.643438025826E+00 -2.394656276703E+00
 O   5.754161986712E+00 -3.322872788550E+00 -2.396873241083E+00
 O  -5.753561878021E+00 -3.324582086628E+00 -2.394893622764E+00
 O   5.751090106078E+00  3.324048478844E+00 -2.394926935778E+00
 O  -1.412657116000E-03 -6.642999372040E+00 -2.397126012342E+00
 O  -5.753648235921E+00  3.321806380005E+00 -2.397024836307E+00
 O   1.530873999033E-16  2.214571445248E+00 -3.914846215896E+00
 O   1.917875130079E+00 -1.107285722624E+00 -3.914846215896E+00
 O  -1.917875130079E+00 -1.107285722624E+00 -3.914846215896E+00
 O  -1.917875130080E+00  5.536428613118E+00 -3.914846215896E+00
 O   5.753625390237E+00 -1.107285722624E+00 -3.914846215896E+00
 O  -3.835750260157E+00 -4.429142890494E+00 -3.914846215896E+00
 O   3.835750260157E+00 -4.429142890494E+00 -3.914846215896E+00
 O   1.917875130080E+00  5.536428613118E+00 -3.914846215896E+00
 O  -5.753625390237E+00 -1.107285722624E+00 -3.914846215896E+00
 O   3.835750260159E+00  2.214571445247E+00 -3.914846215896E+00
 O  -1.000236799196E-12 -4.429142890492E+00 -3.914846215896E+00
 O  -3.835750260158E+00  2.214571445246E+00 -3.914846215896E+00
 O  -7.671500520293E+00 -4.429142890500E+00 -3.914846215896E+00
 O  -7.671500520300E+00  2.214571445248E+00 -3.914846215896E+00
 O   5.753625390229E+00  5.536428613098E+00 -3.914846215896E+00
 O   1.917875130071E+00 -7.751000058346E+00 -3.914846215896E+00
 CE  0.000000000000E+00  0.000000000000E+00 -4.697815459075E+00
 CE -1.917875130080E+00  3.321857167872E+00 -4.697815459075E+00
 CE  3.835750260159E+00 -1.000000000000E-12 -4.697815459075E+00
 CE -1.917875130079E+00 -3.321857167871E+00 -4.697815459075E+00
 CE  1.917875130079E+00 -3.321857167871E+00 -4.697815459075E+00
 CE  1.917875130080E+00  3.321857167872E+00 -4.697815459075E+00
 CE -3.835750260159E+00 -1.000000000000E-12 -4.697815459075E+00
 CE -3.835750260165E+00  6.643714335750E+00 -4.697815459075E+00
 CE  7.671500520294E+00  1.000000000000E-11 -4.697815459075E+00
 CE  3.835750260140E+00  6.643714335750E+00 -4.697815459075E+00
 CE  0.000000000000E+00  6.643714335750E+00 -4.697815459075E+00
 CE  5.753625390243E+00 -3.321857167875E+00 -4.697815459075E+00
 CE  9.589375650380E+00 -3.321857167875E+00 -4.697815459075E+00
 CE  5.753625390228E+00  3.321857167862E+00 -4.697815459075E+00
 CE -7.671500520307E+00  6.643714335750E+00 -4.697815459075E+00
 CE -5.753625390224E+00  3.321857167861E+00 -4.697815459075E+00
 O  -1.917875130080E+00  1.107285722623E+00 -5.480784702254E+00
 O   1.917875130079E+00  1.107285722623E+00 -5.480784702254E+00
 O   9.998986534505E-13 -2.214571445246E+00 -5.480784702254E+00
 O  -3.835750260160E+00  4.429142890495E+00 -5.480784702254E+00
 O   5.753625390238E+00  1.107285722622E+00 -5.480784702254E+00
 O  -1.917875130078E+00 -5.536428613117E+00 -5.480784702254E+00
 O   1.917875130078E+00 -5.536428613117E+00 -5.480784702254E+00
 O   3.835750260160E+00  4.429142890495E+00 -5.480784702254E+00
 O  -5.753625390238E+00  1.107285722622E+00 -5.480784702254E+00
 O   1.293207985141E-16  4.429142890495E+00 -5.480784702254E+00
 O   3.835750260158E+00 -2.214571445248E+00 -5.480784702254E+00
 O  -3.835750260158E+00 -2.214571445248E+00 -5.480784702254E+00
 O   5.753625390243E+00 -5.536428613123E+00 -5.480784702254E+00
 O  -7.671500520276E+00 -2.214571445257E+00 -5.480784702254E+00
 O   1.917875130032E+00  7.751000058380E+00 -5.480784702254E+00
 O   7.671500520293E+00  4.429142890500E+00 -5.480784702254E+00
 SI  1.917502363232E+00  5.541980280760E+00  7.276305901225E+00
 O   4.390737270580E-01  6.391829262992E+00  7.155241957177E+00
 O   3.334143426559E+00  6.534390010121E+00  7.150685919114E+00
 O   1.887647902688E+00  5.497510936823E+00  8.992640566469E+00
 O   2.002574944448E+00  3.806774497193E+00  7.097692559913E+00
 C  -1.410344146637E+00  6.117214290361E+00  8.728024451875E+00
 C   3.695212035390E-01  2.737716528313E+00  8.580936693284E+00
 C  -2.393463348700E+00 -5.792496811184E+00  8.218911121888E+00
 C   2.442296916285E+00  4.270353716509E+00  1.099639556198E+01
 C  -3.421210482390E-01  7.041202304412E+00  8.173817886105E+00
 C  -3.902209360483E+00 -5.730158149818E+00  8.062326050477E+00
 C   2.965299873114E+00  5.017149738029E+00  9.778114823264E+00
 C   1.766459278187E+00  2.708458456477E+00  7.990232496081E+00
 H   2.344918913260E-01  3.627900628464E+00  9.194809709046E+00
 H  -2.053429073689E+00 -5.039466951105E+00  8.941748436802E+00
 H   2.537203469975E+00  2.687966383773E+00  8.769256583489E+00
 H   1.906226422940E+00  1.803214064903E+00  7.377470644716E+00
 H  -4.192279566615E+00 -4.764622213485E+00  7.629468349066E+00
 H  -4.422247494682E+00 -5.845313984621E+00  9.017974148371E+00
 H  -2.088430102670E+00  6.677867108385E+00  9.385992048537E+00
 H   3.275377940334E+00  3.960831825311E+00  1.164157504956E+01
 H  -1.989083017124E+00  5.686962462156E+00  7.904429313894E+00
 H  -9.600651214620E-01  5.309073394589E+00  9.308801532606E+00
 H   1.779940568077E+00  4.918703429639E+00  1.157988061055E+01
 H   1.874573983945E+00  3.380060544416E+00  1.071398437406E+01
 H   3.288555912120E-01  7.398261884980E+00  8.963965333045E+00
 H  -7.908456479570E-01  7.914653706431E+00  7.677357485081E+00
 H   3.637338295030E+00  4.373735216228E+00  9.183441847905E+00
 H   3.591723716260E+00  5.857633268406E+00  1.012362100332E+01
 H   2.012555295670E-01  1.848539802127E+00  9.203456297706E+00
 H  -3.636199998160E-01  2.737662797349E+00  7.769013776950E+00
 H  -1.897775210972E+00 -5.591122315364E+00  7.261571811727E+00
 H  -2.072256547402E+00 -6.781085264575E+00  8.562421414692E+00
  225
Ceria 110-ly7-TEOS-2CH3                  E -4.0950487273406E+04 DE 7.8E-08( 43)
 O  -2.392047380500E-02  2.169198763885E+00  5.361637657369E+00
 O   1.916529743294E+00 -1.115696933393E+00  5.405436173186E+00
 O  -1.913846329579E+00 -1.108093318877E+00  5.388681355155E+00
 O  -1.975922275402E+00  5.543319519040E+00  5.366372210691E+00
 O   5.753145568533E+00 -1.109942226610E+00  5.389176057070E+00
 O  -3.804300792763E+00 -4.375155058134E+00  5.345723359474E+00
 O   3.819354533325E+00 -4.416932038495E+00  5.399679309767E+00
 O   1.932498393298E+00  5.522107970102E+00  5.525079622741E+00
 O  -5.754620668477E+00 -1.116533901367E+00  5.387665565735E+00
 O   3.862676286488E+00  2.157045614042E+00  5.357923070745E+00
 O   6.744494375000E-03 -4.421970107630E+00  5.406773636522E+00
 O  -3.829817145835E+00  2.219613326769E+00  5.386660464710E+00
 O   7.636559722136E+00 -4.389483926463E+00  5.376641837070E+00
 O   7.666287032303E+00  2.217040440102E+00  5.388008773663E+00
 O  -1.873023686884E+00 -7.747123451200E+00  5.362691681117E+00
 O   1.917007340789E+00 -7.745804989933E+00  5.389913614662E+00
 CE -4.942766266000E-03 -1.681979487600E-02  4.635920728521E+00
 CE -1.929886846663E+00  3.318171602175E+00  4.636016942613E+00
 CE  3.841830278484E+00 -1.536495744400E-02  4.636490597779E+00
 CE -1.901841616326E+00 -3.303024911769E+00  4.635718722830E+00
 CE  1.920603661303E+00 -3.317799353237E+00  4.648925710432E+00
 CE  1.925178632155E+00  3.251124776385E+00  4.682961789551E+00
 CE -3.836075753686E+00  2.128215682000E-03  4.631324959316E+00
 CE  3.812509020497E+00 -6.637378692693E+00  4.638429439134E+00
 CE -7.670514371444E+00  2.146075370000E-04  4.632867110210E+00
 CE -3.764147200366E+00 -6.607738007370E+00  4.690749283252E+00
 CE -6.823051800300E-02  6.682940587975E+00  4.696215821681E+00
 CE  5.739312668994E+00 -3.305951294409E+00  4.639023457187E+00
 CE -5.756018859463E+00 -3.307460540269E+00  4.632439259930E+00
 CE  5.764253304025E+00  3.313621559495E+00  4.635995480448E+00
 CE  1.680261909500E-02 -6.638799698301E+00  4.641644837725E+00
 CE -5.754342641688E+00  3.321433877027E+00  4.633619057594E+00
 O  -1.934413583913E+00  1.100348730550E+00  3.840786350638E+00
 O   1.916261573159E+00  1.082274928789E+00  3.857784874949E+00
 O   6.315440251000E-03 -2.215222634885E+00  3.847742380658E+00
 O  -3.852644405885E+00  4.421800969338E+00  3.841446506330E+00
 O   5.773721570536E+00  1.098265678916E+00  3.838983382498E+00
 O  -1.893805906727E+00 -5.523078649588E+00  3.861951975965E+00
 O   1.913992288854E+00 -5.529861916017E+00  3.850011003688E+00
 O   3.817221603169E+00  4.438139510598E+00  3.895075870527E+00
 O  -5.753438067722E+00  1.107412415123E+00  3.854215696811E+00
 O   2.065524669400E-02  4.447133325338E+00  3.901819138654E+00
 O   3.831158564573E+00 -2.213595623975E+00  3.848373096246E+00
 O  -3.837413064427E+00 -2.189350201612E+00  3.837554418052E+00
 O   5.731731454885E+00 -5.522700849499E+00  3.865135737195E+00
 O  -7.671077979407E+00 -2.200193229185E+00  3.841683409846E+00
 O   1.913140643024E+00  7.724692499149E+00  3.905524305550E+00
 O  -7.657393925159E+00  4.420142676859E+00  3.844072114297E+00
 O  -2.842390786000E-03 -3.353457491000E-03  2.335244242696E+00
 O  -1.907069757052E+00  3.330108774262E+00  2.356959217819E+00
 O   3.838337152482E+00 -2.147201803000E-03  2.334625290823E+00
 O  -1.914907724922E+00 -3.317522459378E+00  2.335956576388E+00
 O   1.918866597091E+00 -3.321070937381E+00  2.334887169336E+00
 O   1.918151213112E+00  3.308422251999E+00  2.336965179073E+00
 O  -3.841432282742E+00  6.089478707000E-03  2.328812799232E+00
 O   3.830523841310E+00 -6.641434091747E+00  2.338818196815E+00
 O  -7.664374882571E+00  1.121170004000E-03  2.330373259224E+00
 O  -3.822810752855E+00 -6.634317048035E+00  2.345170881457E+00
 O  -1.420481381400E-02  6.653223567556E+00  2.345291749132E+00
 O   5.750511356806E+00 -3.318452761199E+00  2.337841572008E+00
 O  -5.753920391479E+00 -3.335266149886E+00  2.356468335273E+00
 O   5.744480673630E+00  3.327704867115E+00  2.354810147209E+00
 O   3.044226731000E-03 -6.643874848803E+00  2.337027122492E+00
 O  -5.754609612453E+00  3.315758831057E+00  2.331928447687E+00
 CE -1.916604040187E+00  1.107889104114E+00  1.532505354356E+00
 CE  1.917863539840E+00  1.108074887481E+00  1.534486180294E+00
 CE  2.591724103000E-03 -2.214799604449E+00  1.528126993005E+00
 CE -3.836447760924E+00  4.431860664258E+00  1.533527089365E+00
 CE  5.753185479488E+00  1.106562874660E+00  1.532194446598E+00
 CE -1.917893425133E+00 -5.535815278758E+00  1.536111379235E+00
 CE  1.916849927249E+00 -5.533246290556E+00  1.530364066295E+00
 CE  3.830778330409E+00  4.433616153211E+00  1.561043129495E+00
 CE -5.753510962699E+00  1.107672459712E+00  1.531315236234E+00
 CE  5.749081863000E-03  4.435229465485E+00  1.564161162236E+00
 CE  3.833782381995E+00 -2.214900664102E+00  1.529022447962E+00
 CE -3.833867492044E+00 -2.214127633970E+00  1.532153609632E+00
 CE  5.753237963548E+00 -5.535493401733E+00  1.537399963050E+00
 CE  7.669614763426E+00 -2.215335776506E+00  1.531984418641E+00
 CE  1.917170178800E+00  7.743487193338E+00  1.565860347927E+00
 CE -7.508963499932E-05 -8.856106940235E+00  1.534106767538E+00
 O  -3.173724253000E-03  2.217382879163E+00  7.607864678310E-01
 O   1.917856506268E+00 -1.106347870271E+00  7.520198303350E-01
 O  -1.917936077507E+00 -1.106011599744E+00  7.524634236280E-01
 O  -1.918855485669E+00  5.536230854102E+00  7.623256645030E-01
 O   5.754357602676E+00 -1.107286660387E+00  7.526407452140E-01
 O  -3.837755688749E+00 -4.427106454696E+00  7.615736158950E-01
 O   3.835729060115E+00 -4.428237798674E+00  7.527860110320E-01
 O   1.917759007199E+00  5.539537126469E+00  7.820123107230E-01
 O  -5.753318652544E+00 -1.115117202226E+00  7.551528500510E-01
 O   3.839031802310E+00  2.216908121017E+00  7.596476460110E-01
 O   1.987769459997E-04 -4.428117779015E+00  7.529897640810E-01
 O  -3.828834692059E+00  2.220905451104E+00  7.552166786490E-01
 O  -7.670159213634E+00 -4.426951747912E+00  7.616912287000E-01
 O   7.665327503180E+00  2.219072730686E+00  7.551748018120E-01
 O   5.753159500120E+00  5.535464540376E+00  7.608984916520E-01
 O   1.918030762605E+00 -7.750203154110E+00  7.539456644660E-01
 O  -1.917197839724E+00  1.107956082095E+00 -8.178275432670E-01
 O   1.917659925417E+00  1.109878146217E+00 -8.140725333530E-01
 O   4.200001950002E-04 -2.214741464688E+00 -8.188988987910E-01
 O  -3.835057199290E+00  4.430486306022E+00 -8.171986919740E-01
 O   5.753247498094E+00  1.107185063781E+00 -8.179932124120E-01
 O  -1.919574860911E+00 -5.537638463500E+00 -8.132792532490E-01
 O   1.917550325997E+00 -5.536214698171E+00 -8.181682320800E-01
 O   3.830652051767E+00  4.432465803641E+00 -8.046553423080E-01
 O  -5.753300781964E+00  1.107172002964E+00 -8.133521017670E-01
 O   4.595721294000E-03  4.433125331968E+00 -8.033643876450E-01
 O   3.835458675004E+00 -2.214646086925E+00 -8.188528589620E-01
 O  -3.835319655200E+00 -2.215586168248E+00 -8.178026805780E-01
 O  -1.915678651292E+00  7.749739600663E+00 -8.128368248620E-01
 O   7.671424475157E+00 -2.215756721594E+00 -8.175689540690E-01
 O   1.917556608732E+00  7.745409161790E+00 -8.034820361790E-01
 O  -7.262611209995E-04 -8.857312795944E+00 -8.168820318590E-01
 CE  9.275607060000E-04  2.219221140810E+00 -1.591201808432E+00
 CE  1.917924564972E+00 -1.105622015601E+00 -1.598337747352E+00
 CE -1.917504414126E+00 -1.106980824336E+00 -1.597304138259E+00
 CE -1.914209609539E+00  5.536370589318E+00 -1.590957493353E+00
 CE  5.753370154838E+00 -1.107286613446E+00 -1.597377668393E+00
 CE -3.838637242554E+00 -4.431793124686E+00 -1.590872702085E+00
 CE  3.836913964508E+00 -4.429578602113E+00 -1.597537730387E+00
 CE  1.917589967850E+00  5.537355326045E+00 -1.586432382858E+00
 CE -5.753468425672E+00 -1.108450137529E+00 -1.596099688194E+00
 CE  3.834719247941E+00  2.218713801974E+00 -1.591641343277E+00
 CE -1.112587095000E-03 -4.429498579601E+00 -1.598018786818E+00
 CE -3.834481036996E+00  2.215979099131E+00 -1.595875439249E+00
 CE  2.754671583000E-03  8.855513851288E+00 -1.591000765038E+00
 CE  7.670462070196E+00  2.215715328053E+00 -1.595884860093E+00
 CE  5.750083598328E+00  5.536151545697E+00 -1.591602541961E+00
 CE  1.917776272827E+00 -7.750078648991E+00 -1.596589626458E+00
 O   8.605705260000E-04  1.736685801000E-03 -2.397106444601E+00
 O  -1.915152815538E+00  3.324336804887E+00 -2.394833115743E+00
 O   3.834854275459E+00  1.684532599000E-03 -2.397182474862E+00
 O  -1.918305752246E+00 -3.322812822395E+00 -2.397002732098E+00
 O   1.917881157898E+00 -3.321472186719E+00 -2.398765236296E+00
 O   1.917624780025E+00  3.324612288473E+00 -2.394503859853E+00
 O  -3.836373002031E+00  9.170636430000E-04 -2.397322664902E+00
 O   3.837138373066E+00 -6.642737810341E+00 -2.396813558088E+00
 O  -7.670642744569E+00  7.872733180000E-04 -2.397361993082E+00
 O   3.834115458205E+00  6.643521405285E+00 -2.394483176739E+00
 O   1.534427437000E-03  6.643438025826E+00 -2.394656276703E+00
 O   5.754161986712E+00 -3.322872788550E+00 -2.396873241083E+00
 O  -5.753561878021E+00 -3.324582086628E+00 -2.394893622764E+00
 O   5.751090106078E+00  3.324048478844E+00 -2.394926935778E+00
 O  -1.412657116000E-03 -6.642999372040E+00 -2.397126012342E+00
 O  -5.753648235921E+00  3.321806380005E+00 -2.397024836307E+00
 O   1.530873999033E-16  2.214571445248E+00 -3.914846215896E+00
 O   1.917875130079E+00 -1.107285722624E+00 -3.914846215896E+00
 O  -1.917875130079E+00 -1.107285722624E+00 -3.914846215896E+00
 O  -1.917875130080E+00  5.536428613118E+00 -3.914846215896E+00
 O   5.753625390237E+00 -1.107285722624E+00 -3.914846215896E+00
 O  -3.835750260157E+00 -4.429142890494E+00 -3.914846215896E+00
 O   3.835750260157E+00 -4.429142890494E+00 -3.914846215896E+00
 O   1.917875130080E+00  5.536428613118E+00 -3.914846215896E+00
 O  -5.753625390237E+00 -1.107285722624E+00 -3.914846215896E+00
 O   3.835750260159E+00  2.214571445247E+00 -3.914846215896E+00
 O  -1.000236799196E-12 -4.429142890492E+00 -3.914846215896E+00
 O  -3.835750260158E+00  2.214571445246E+00 -3.914846215896E+00
 O  -7.671500520293E+00 -4.429142890500E+00 -3.914846215896E+00
 O  -7.671500520300E+00  2.214571445248E+00 -3.914846215896E+00
 O   5.753625390229E+00  5.536428613098E+00 -3.914846215896E+00
 O   1.917875130071E+00 -7.751000058346E+00 -3.914846215896E+00
 CE  0.000000000000E+00  0.000000000000E+00 -4.697815459075E+00
 CE -1.917875130080E+00  3.321857167872E+00 -4.697815459075E+00
 CE  3.835750260159E+00 -1.000000000000E-12 -4.697815459075E+00
 CE -1.917875130079E+00 -3.321857167871E+00 -4.697815459075E+00
 CE  1.917875130079E+00 -3.321857167871E+00 -4.697815459075E+00
 CE  1.917875130080E+00  3.321857167872E+00 -4.697815459075E+00
 CE -3.835750260159E+00 -1.000000000000E-12 -4.697815459075E+00
 CE -3.835750260165E+00  6.643714335750E+00 -4.697815459075E+00
 CE  7.671500520294E+00  1.000000000000E-11 -4.697815459075E+00
 CE  3.835750260140E+00  6.643714335750E+00 -4.697815459075E+00
 CE  0.000000000000E+00  6.643714335750E+00 -4.697815459075E+00
 CE  5.753625390243E+00 -3.321857167875E+00 -4.697815459075E+00
 CE  9.589375650380E+00 -3.321857167875E+00 -4.697815459075E+00
 CE  5.753625390228E+00  3.321857167862E+00 -4.697815459075E+00
 CE -7.671500520307E+00  6.643714335750E+00 -4.697815459075E+00
 CE -5.753625390224E+00  3.321857167861E+00 -4.697815459075E+00
 O  -1.917875130080E+00  1.107285722623E+00 -5.480784702254E+00
 O   1.917875130079E+00  1.107285722623E+00 -5.480784702254E+00
 O   9.998986534505E-13 -2.214571445246E+00 -5.480784702254E+00
 O  -3.835750260160E+00  4.429142890495E+00 -5.480784702254E+00
 O   5.753625390238E+00  1.107285722622E+00 -5.480784702254E+00
 O  -1.917875130078E+00 -5.536428613117E+00 -5.480784702254E+00
 O   1.917875130078E+00 -5.536428613117E+00 -5.480784702254E+00
 O   3.835750260160E+00  4.429142890495E+00 -5.480784702254E+00
 O  -5.753625390238E+00  1.107285722622E+00 -5.480784702254E+00
 O   1.293207985141E-16  4.429142890495E+00 -5.480784702254E+00
 O   3.835750260158E+00 -2.214571445248E+00 -5.480784702254E+00
 O  -3.835750260158E+00 -2.214571445248E+00 -5.480784702254E+00
 O   5.753625390243E+00 -5.536428613123E+00 -5.480784702254E+00
 O  -7.671500520276E+00 -2.214571445257E+00 -5.480784702254E+00
 O   1.917875130032E+00  7.751000058380E+00 -5.480784702254E+00
 O   7.671500520293E+00  4.429142890500E+00 -5.480784702254E+00
 SI  1.917502363232E+00  5.541980280760E+00  7.276305901225E+00
 O   4.390737270580E-01  6.391829262992E+00  7.155241957177E+00
 O   3.334143426559E+00  6.534390010121E+00  7.150685919114E+00
 O   1.887647902688E+00  5.497510936823E+00  8.992640566469E+00
 O   2.002574944448E+00  3.806774497193E+00  7.097692559913E+00
 C  -1.410344146637E+00  6.117214290361E+00  8.728024451875E+00
 C   3.695212035390E-01  2.737716528313E+00  8.580936693284E+00
 C  -2.393463348700E+00 -5.792496811184E+00  8.218911121888E+00
 C   2.442296916285E+00  4.270353716509E+00  1.099639556198E+01
 C  -3.421210482390E-01  7.041202304412E+00  8.173817886105E+00
 C  -3.902209360483E+00 -5.730158149818E+00  8.062326050477E+00
 C   2.965299873114E+00  5.017149738029E+00  9.778114823264E+00
 C   1.766459278187E+00  2.708458456477E+00  7.990232496081E+00
 H   2.344918913260E-01  3.627900628464E+00  9.194809709046E+00
 H  -2.053429073689E+00 -5.039466951105E+00  8.941748436802E+00
 H   2.537203469975E+00  2.687966383773E+00  8.769256583489E+00
 H   1.906226422940E+00  1.803214064903E+00  7.377470644716E+00
 H  -4.192279566615E+00 -4.764622213485E+00  7.629468349066E+00
 H  -4.422247494682E+00 -5.845313984621E+00  9.017974148371E+00
 H  -2.088430102670E+00  6.677867108385E+00  9.385992048537E+00
 H   3.275377940334E+00  3.960831825311E+00  1.164157504956E+01
 H  -1.989083017124E+00  5.686962462156E+00  7.904429313894E+00
 H  -9.600651214620E-01  5.309073394589E+00  9.308801532606E+00
 H   1.779940568077E+00  4.918703429639E+00  1.157988061055E+01
 H   1.874573983945E+00  3.380060544416E+00  1.071398437406E+01
 H   3.288555912120E-01  7.398261884980E+00  8.963965333045E+00
 H  -7.908456479570E-01  7.914653706431E+00  7.677357485081E+00
 H   3.637338295030E+00  4.373735216228E+00  9.183441847905E+00
 H   3.591723716260E+00  5.857633268406E+00  1.012362100332E+01
 H   2.012555295670E-01  1.848539802127E+00  9.203456297706E+00
 H  -3.636199998160E-01  2.737662797349E+00  7.769013776950E+00
 H  -1.897775210972E+00 -5.591122315364E+00  7.261571811727E+00
 H  -2.072256547402E+00 -6.781085264575E+00  8.562421414692E+00
