  225
Ceria 110-ly7-TEOS-2CH3                 
 O   1.590631954797E+00  2.281867866208E+00  4.274117954530E+00
 O  -1.680407105627E+00 -1.395789414189E+00  4.223204369460E+00
 O   2.149045305090E+00 -1.449616310588E+00  4.205059386266E+00
 O  -2.271322245526E+00  2.336562415221E+00  4.260861012815E+00
 O   2.152300766457E+00  5.953360353131E+00  4.273998580546E+00
 O  -1.933080273368E+00 -5.507860912980E+00  4.259542078499E+00
 O   1.815398958953E+00 -5.336330421098E+00  4.237303847964E+00
 O  -1.651933284362E+00  6.071794777533E+00  4.246542228266E+00
 O   5.443671511951E+00  1.839499871977E+00  4.323442468194E+00
 O  -5.464275213420E+00 -1.095482811177E+00  4.153208628157E+00
 O   5.952065965189E+00 -1.478215021377E+00  4.210508252267E+00
 O  -6.094716484137E+00  2.317433317868E+00  4.274655890591E+00
 O   6.014435532416E+00  5.068345921177E+00  4.155439649304E+00
 O  -5.736870805389E+00 -5.810474124914E+00  4.505619600198E+00
 O   5.587433447078E+00 -5.154806468199E+00  4.187443672380E+00
 O  -5.466258102101E+00  5.771957255956E+00  4.309862760399E+00
 CE -6.709498311800E-02  1.927750675394E+00  3.237934832488E+00
 CE  3.287209025000E-02 -1.867849132773E+00  3.210252215978E+00
 CE  6.548545746700E-02  5.741658842844E+00  3.266088716007E+00
 CE  3.982669624300E-02 -5.735898084433E+00  3.215209218762E+00
 CE  3.770350262054E+00  1.904966476831E+00  3.259874846243E+00
 CE -3.813000650964E+00 -1.846088932356E+00  3.257852553685E+00
 CE  3.868946928997E+00 -1.884921740122E+00  3.236728927987E+00
 CE -3.926267066677E+00  1.910152493586E+00  3.263933904279E+00
 CE  3.881238610617E+00  5.704513673946E+00  3.236015650523E+00
 CE -3.676038071175E+00 -5.715612994985E+00  3.156689694145E+00
 CE  3.759155382258E+00 -5.700981656442E+00  3.207960097701E+00
 CE -3.779786402175E+00  5.739682658073E+00  3.264782329064E+00
 CE  7.577821036817E+00  1.961883949663E+00  3.295261438599E+00
 CE -7.649188927242E+00 -1.881813170720E+00  3.235707015439E+00
 CE -7.632536404531E+00  5.787464977523E+00  3.304159668692E+00
 CE  7.464944750321E+00 -5.780609993955E+00  3.223753562811E+00
 O   1.884491911577E+00  1.877444460375E+00  1.739209072276E+00
 O  -1.894618322408E+00 -1.937168796254E+00  1.738479693824E+00
 O   1.901581895182E+00 -1.932644600533E+00  1.708726264041E+00
 O  -1.926005849653E+00  1.884039209721E+00  1.746723215913E+00
 O   1.916072302605E+00  5.717873683909E+00  1.724643510815E+00
 O  -1.867397670084E+00 -5.752914478497E+00  1.729061576802E+00
 O   1.929416126373E+00 -5.768049721103E+00  1.724299633387E+00
 O  -1.914584124717E+00  5.721454337436E+00  1.717756923138E+00
 O   5.741355910005E+00  1.944420172747E+00  1.762257427729E+00
 O  -5.784902014462E+00 -1.986945135766E+00  1.788334424571E+00
 O   5.763371826013E+00 -1.927849031626E+00  1.723017282596E+00
 O  -5.739775906173E+00  1.896549593400E+00  1.741194223654E+00
 O   5.716800185289E+00  5.810259593671E+00  1.732620838235E+00
 O  -5.697522235378E+00 -5.739686244161E+00  1.845981145541E+00
 O   5.686128002324E+00 -5.783252019515E+00  1.732631321371E+00
 O  -5.720685844591E+00  5.788216099479E+00  1.758085634824E+00
 O   1.783486217100E-02  8.911884050000E-04  2.067530808596E+00
 O  -2.721116771500E-02  3.814109372740E+00  2.102913526102E+00
 O   1.127365897600E-02 -3.833091305962E+00  2.106843084384E+00
 O   6.970091532500E-02  7.653110197842E+00  2.128758957474E+00
 O   3.833399131899E+00 -1.735925271700E-02  2.071436215054E+00
 O  -3.817080102513E+00 -7.906887529000E-03  2.027776306581E+00
 O   3.802951337347E+00  3.808677753596E+00  2.093625773900E+00
 O  -3.797531017692E+00 -3.825235744003E+00  2.077815633049E+00
 O   3.808491327119E+00 -3.825628714322E+00  2.082371571593E+00
 O  -3.851483587775E+00  3.812792754742E+00  2.107624009605E+00
 O   3.789815303235E+00 -7.673690782760E+00  2.196147860219E+00
 O  -3.763691962602E+00 -7.664104832569E+00  2.122167465308E+00
 O   7.668497466190E+00  1.191345699600E-02  2.091438308481E+00
 O   7.709003395553E+00  3.839082387469E+00  2.026621463728E+00
 O   7.635566636338E+00 -3.858467291700E+00  2.088243179143E+00
 O   7.654596699240E+00 -7.633329741354E+00  1.970687954129E+00
 CE  1.913583541769E+00 -4.274864066000E-03  5.338107284080E-01
 CE -1.931193681158E+00 -7.820693795000E-03  5.312780457430E-01
 CE  1.910358809228E+00  3.813304546607E+00  5.531267308920E-01
 CE -1.909120409213E+00 -3.816238245230E+00  5.266020404430E-01
 CE  1.915243911888E+00 -3.824005874998E+00  5.312831706320E-01
 CE -1.930711702231E+00  3.816403460862E+00  5.654512250180E-01
 CE  1.927030924678E+00  7.642973328979E+00  5.544702889300E-01
 CE -1.896397992806E+00  7.641220482818E+00  5.493033101850E-01
 CE  5.760195672004E+00  2.200068555200E-02  5.623333378220E-01
 CE -5.762018871486E+00  3.759167330000E-04  5.627311216540E-01
 CE  5.775538161041E+00  3.850094709889E+00  5.777755592200E-01
 CE -5.750139765618E+00 -3.854918282607E+00  5.764249883780E-01
 CE  5.754347787315E+00 -3.822619771888E+00  5.510054468500E-01
 CE -5.765165112036E+00  3.845352472269E+00  5.918378544010E-01
 CE  5.771965018387E+00  7.663218386984E+00  5.176641138400E-01
 CE -5.752733908928E+00 -7.655175668957E+00  5.951779460980E-01
 O  -4.968363693000E-03 -5.136487457000E-03 -7.146887274580E-01
 O  -6.335535301000E-03  3.826847046546E+00 -6.932894577020E-01
 O   2.815745696000E-03 -3.819077773308E+00 -7.005428922860E-01
 O   1.717069097600E-02  7.639959757503E+00 -6.792516644000E-01
 O   3.842126897265E+00  2.160999865000E-03 -7.026861922460E-01
 O  -3.857670959459E+00 -8.406597980000E-03 -7.166669641500E-01
 O   3.841135662060E+00  3.821387407778E+00 -6.788785469580E-01
 O  -3.829498693743E+00 -3.849017674340E+00 -6.950933441840E-01
 O   3.840596083456E+00 -3.833674838272E+00 -6.934638361910E-01
 O  -3.833163900547E+00  3.838120057098E+00 -6.948008262340E-01
 O   3.829633565095E+00  7.648140569402E+00 -6.720528230260E-01
 O  -3.814917806267E+00 -7.667895627626E+00 -6.710174742020E-01
 O  -7.671318689793E+00  3.206871162000E-03 -6.969502729620E-01
 O   7.684226018703E+00  3.819176246650E+00 -7.023687548350E-01
 O   7.672834899700E+00 -3.849216921388E+00 -6.881314069590E-01
 O  -7.658601882693E+00 -7.678762395118E+00 -7.230376931770E-01
 O   1.915081407703E+00  1.906566999060E+00 -8.847720784680E-01
 O  -1.926226030736E+00 -1.916915935877E+00 -8.788854842280E-01
 O   1.921064473674E+00 -1.919015065206E+00 -8.942961932160E-01
 O  -1.926873580301E+00  1.912038191593E+00 -8.766340632490E-01
 O   1.920268054802E+00  5.743518701687E+00 -8.937450043560E-01
 O  -1.911396159326E+00 -5.756334243864E+00 -8.787946522110E-01
 O   1.910850628280E+00 -5.744766440633E+00 -8.854489329570E-01
 O  -1.912048231535E+00  5.752526169319E+00 -8.965841225010E-01
 O   5.756603832493E+00  1.925792499498E+00 -8.751547423230E-01
 O  -5.753106559698E+00 -1.927545297550E+00 -8.514095979200E-01
 O   5.756436642423E+00 -1.919172206810E+00 -8.876088423700E-01
 O  -5.759832849713E+00  1.921160745359E+00 -8.737827081110E-01
 O   5.752039992905E+00  5.747073787787E+00 -8.954584827560E-01
 O  -5.750981788575E+00 -5.764348576683E+00 -8.401630894450E-01
 O   5.758999727678E+00 -5.750218543594E+00 -8.941482736790E-01
 O  -5.748998631215E+00  5.758196835981E+00 -8.714824178080E-01
 CE -4.001129300000E-04  1.918490569007E+00 -2.137066445452E+00
 CE  6.575891180000E-03 -1.913755994650E+00 -2.143820542332E+00
 CE -3.228087222000E-03  5.745467202413E+00 -2.132818573298E+00
 CE -1.781016644000E-03 -5.755487143629E+00 -2.134575587048E+00
 CE  3.845958119911E+00  1.921864882557E+00 -2.125836282413E+00
 CE -3.841769240064E+00 -1.912895551280E+00 -2.136476726140E+00
 CE  3.847988125129E+00 -1.910760699927E+00 -2.135854516817E+00
 CE -3.844350566658E+00  1.930401762266E+00 -2.119712413177E+00
 CE  3.834558710393E+00  5.746720732777E+00 -2.136186158753E+00
 CE -3.834388758203E+00 -5.758245662764E+00 -2.119768173365E+00
 CE  3.833723430568E+00 -5.748953559772E+00 -2.134723539217E+00
 CE -3.838669608061E+00  5.751487255882E+00 -2.111165034991E+00
 CE -7.667409470550E+00  1.926759867778E+00 -2.128257444029E+00
 CE -7.667071443202E+00 -1.914125976722E+00 -2.128545180946E+00
 CE -7.653343249875E+00  5.756419999809E+00 -2.128295903991E+00
 CE -7.665518068011E+00 -5.746896662699E+00 -2.129925246291E+00
 O   1.916143491029E+00  1.918722031591E+00 -3.584914154015E+00
 O  -1.915894222714E+00 -1.918523055919E+00 -3.581271911916E+00
 O   1.915329966049E+00 -1.917390864332E+00 -3.589895820933E+00
 O  -1.914154432949E+00  1.917492888534E+00 -3.580298794725E+00
 O   1.917213399134E+00  5.752775013790E+00 -3.588801079149E+00
 O  -1.919524114566E+00 -5.751998034647E+00 -3.578042239536E+00
 O   1.917726131998E+00 -5.752441164783E+00 -3.581941883668E+00
 O  -1.910054234588E+00  5.754068557348E+00 -3.590257801924E+00
 O   5.751901003362E+00  1.917267305744E+00 -3.582738701934E+00
 O  -5.758354846298E+00 -1.917968466397E+00 -3.565582477591E+00
 O   5.753508355054E+00 -1.918944379644E+00 -3.586238374102E+00
 O  -5.756246566289E+00  1.916458974548E+00 -3.584986856122E+00
 O   5.750912486912E+00  5.755782991646E+00 -3.595717648550E+00
 O  -5.752378398660E+00 -5.749598511780E+00 -3.576063969603E+00
 O   5.751933864555E+00 -5.750290420948E+00 -3.585791176085E+00
 O  -5.752676746539E+00  5.752014233002E+00 -3.588683564060E+00
 O   0.000000000000E+00  0.000000000000E+00 -3.390356274875E+00
 O   0.000000000000E+00  3.835750260159E+00 -3.390356274875E+00
 O   0.000000000000E+00 -3.835750260159E+00 -3.390356274875E+00
 O   0.000000000000E+00  7.671500520300E+00 -3.390356274875E+00
 O   3.835750260161E+00  0.000000000000E+00 -3.390356274875E+00
 O  -3.835750260161E+00  0.000000000000E+00 -3.390356274875E+00
 O   3.835750260161E+00  3.835750260159E+00 -3.390356274875E+00
 O  -3.835750260161E+00 -3.835750260159E+00 -3.390356274875E+00
 O   3.835750260161E+00 -3.835750260159E+00 -3.390356274875E+00
 O  -3.835750260161E+00  3.835750260159E+00 -3.390356274875E+00
 O   3.835750260161E+00  7.671500520300E+00 -3.390356274875E+00
 O  -3.835750260161E+00  7.671500520300E+00 -3.390356274875E+00
 O   7.671500520300E+00  0.000000000000E+00 -3.390356274875E+00
 O   7.671500520300E+00  3.835750260159E+00 -3.390356274875E+00
 O   7.671500520300E+00 -3.835750260159E+00 -3.390356274875E+00
 O   7.671500520300E+00  7.671500520300E+00 -3.390356274875E+00
 CE  1.917875130081E+00  0.000000000000E+00 -4.746498784825E+00
 CE -1.917875130081E+00  0.000000000000E+00 -4.746498784825E+00
 CE  1.917875130081E+00  3.835750260159E+00 -4.746498784825E+00
 CE -1.917875130081E+00 -3.835750260159E+00 -4.746498784825E+00
 CE  1.917875130081E+00 -3.835750260159E+00 -4.746498784825E+00
 CE -1.917875130081E+00  3.835750260159E+00 -4.746498784825E+00
 CE  1.917875130081E+00  7.671500520300E+00 -4.746498784825E+00
 CE -1.917875130081E+00  7.671500520300E+00 -4.746498784825E+00
 CE  5.753625390240E+00  0.000000000000E+00 -4.746498784825E+00
 CE -5.753625390240E+00  0.000000000000E+00 -4.746498784825E+00
 CE  5.753625390240E+00  3.835750260159E+00 -4.746498784825E+00
 CE -5.753625390240E+00 -3.835750260159E+00 -4.746498784825E+00
 CE  5.753625390240E+00 -3.835750260159E+00 -4.746498784825E+00
 CE -5.753625390240E+00  3.835750260159E+00 -4.746498784825E+00
 CE  5.753625390240E+00  7.671500520300E+00 -4.746498784825E+00
 CE -5.753625390240E+00  7.671500520300E+00 -4.746498784825E+00
 O   0.000000000000E+00  0.000000000000E+00 -6.100000000000E+00
 O   0.000000000000E+00  3.835750260159E+00 -6.100000000000E+00
 O   0.000000000000E+00 -3.835750260159E+00 -6.100000000000E+00
 O   0.000000000000E+00  7.671500520300E+00 -6.100000000000E+00
 O   3.835750260161E+00  0.000000000000E+00 -6.100000000000E+00
 O  -3.835750260161E+00  0.000000000000E+00 -6.100000000000E+00
 O   3.835750260161E+00  3.835750260159E+00 -6.100000000000E+00
 O  -3.835750260161E+00 -3.835750260159E+00 -6.100000000000E+00
 O   3.835750260161E+00 -3.835750260159E+00 -6.100000000000E+00
 O  -3.835750260161E+00  3.835750260159E+00 -6.100000000000E+00
 O   3.835750260161E+00  7.671500520300E+00 -6.100000000000E+00
 O  -3.835750260161E+00  7.671500520300E+00 -6.100000000000E+00
 O   7.671500520300E+00  0.000000000000E+00 -6.100000000000E+00
 O   7.671500520300E+00  3.835750260159E+00 -6.100000000000E+00
 O   7.671500520300E+00 -3.835750260159E+00 -6.100000000000E+00
 O   7.671500520300E+00  7.671500520300E+00 -6.100000000000E+00
 SI -5.743556373113E+00 -4.611179182037E+00  5.550010483391E+00
 O  -7.132660259692E+00 -3.731215932843E+00  5.173200161437E+00
 O  -5.636256715843E+00 -5.071612972356E+00  7.087367006714E+00
 O  -4.365850175956E+00 -3.743400357378E+00  5.103917648826E+00
 C   7.230334982295E+00 -3.381610016324E+00  6.223147908968E+00
 C  -3.336613082379E+00 -3.378328379703E+00  6.097581371693E+00
 C  -5.966205655285E+00 -4.762236421954E+00  8.435266992900E+00
 C   7.603847198652E+00 -2.059515547163E+00  6.862116341652E+00
 C  -3.783838237973E+00 -2.164850113273E+00  6.883387813055E+00
 C  -6.877442923135E+00 -5.841886370537E+00  8.992286360870E+00
 H   6.935850108382E+00 -1.856337989071E+00  7.705919380239E+00
 H  -2.961239819220E+00 -1.791407251353E+00  7.500645665960E+00
 H  -7.061267458148E+00 -5.665270695269E+00  1.005371607033E+01
 H  -6.705540870932E+00 -2.054460536580E+00  7.223062429228E+00
 H   7.486130994314E+00 -1.241270736817E+00  6.149235222004E+00
 H   7.200904922689E+00 -4.209476134471E+00  6.942290861131E+00
 H   6.267493811806E+00 -3.346044389126E+00  5.712579349068E+00
 H  -7.832319373593E+00 -5.848574248484E+00  8.463483861262E+00
 H  -6.429023583595E+00 -6.836419694169E+00  8.877939685731E+00
 H  -5.025372188113E+00 -4.718344336592E+00  8.999870959331E+00
 H  -6.431782446400E+00 -3.769157091871E+00  8.497572508154E+00
 H  -3.152219729372E+00 -4.256540518182E+00  6.722503213564E+00
 H  -2.435124612370E+00 -3.164055702462E+00  5.517333674908E+00
 H  -4.623897011693E+00 -2.404283425315E+00  7.541106986304E+00
 H  -4.104532943107E+00 -1.369670484067E+00  6.207977489880E+00
 O   7.084567702821E+00 -7.611814370213E+00  4.513899457132E+00
 C   6.965676139830E+00 -7.442241169175E+00  5.906901600655E+00
 C  -7.722662799537E+00  6.749109724434E+00  6.651325723914E+00
 H   7.133865348430E+00  5.809153972371E+00  6.371605148321E+00
 H   5.898176776514E+00 -7.343113159957E+00  6.173671116699E+00
 H   7.440402042160E+00 -6.486338590594E+00  6.203553213221E+00
 H  -6.665023931786E+00  6.676854285803E+00  6.387338449508E+00
 H   7.525511417903E+00  6.870082436917E+00  7.737094812661E+00
