  249
Ceria 110-ly7-TEOS-2CH3                 
 CE  1.917883785946E+00  2.712289031505E+00  4.508759948529E+00
 CE -1.917883785946E+00 -2.712289031505E+00  4.508759948529E+00
 CE  1.917883785946E+00 -2.712289031505E+00  4.508759948529E+00
 CE -1.917883785946E+00  2.712289031505E+00  4.508759948529E+00
 CE  1.917875316587E+00  8.136855059700E+00  4.508774457939E+00
 CE -1.917875316587E+00  8.136855059700E+00  4.508774457939E+00
 CE  5.753636891006E+00  2.712295723427E+00  4.508770009678E+00
 CE -5.753636891006E+00 -2.712295723427E+00  4.508770009678E+00
 CE  5.753636891006E+00 -2.712295723427E+00  4.508770009678E+00
 CE -5.753636891006E+00  2.712295723427E+00  4.508770009678E+00
 CE  5.753625363687E+00  8.136855059700E+00  4.508815464166E+00
 CE -5.753625363687E+00  8.136855059700E+00  4.508815464166E+00
 O   0.000000000000E+00  3.984668671631E+00  4.630650781462E+00
 O   0.000000000000E+00 -3.984668671631E+00  4.630650781462E+00
 O   0.000000000000E+00 -6.864481409002E+00  4.630627239926E+00
 O   0.000000000000E+00  6.864481409002E+00  4.630627239926E+00
 O   0.000000000000E+00 -1.439904471295E+00  4.630673531454E+00
 O   0.000000000000E+00  1.439904471295E+00  4.630673531454E+00
 O   3.835761613604E+00  3.984679231857E+00  4.630684816177E+00
 O  -3.835761613604E+00 -3.984679231857E+00  4.630684816177E+00
 O   3.835761613604E+00 -3.984679231857E+00  4.630684816177E+00
 O  -3.835761613604E+00  3.984679231857E+00  4.630684816177E+00
 O   3.835753208321E+00 -6.864478590789E+00  4.630667285407E+00
 O  -3.835753208321E+00  6.864478590789E+00  4.630667285407E+00
 O   3.835753208321E+00  6.864478590789E+00  4.630667285407E+00
 O  -3.835753208321E+00 -6.864478590789E+00  4.630667285407E+00
 O   3.835766731196E+00 -1.439903863423E+00  4.630701569513E+00
 O  -3.835766731196E+00  1.439903863423E+00  4.630701569513E+00
 O   3.835766731196E+00  1.439903863423E+00  4.630701569513E+00
 O  -3.835766731196E+00 -1.439903863423E+00  4.630701569513E+00
 O   7.671500520300E+00  3.984690830386E+00  4.630709266472E+00
 O   7.671500520300E+00 -3.984690830386E+00  4.630709266472E+00
 O   7.671500520300E+00 -6.864477070342E+00  4.630703221351E+00
 O   7.671500520300E+00  6.864477070342E+00  4.630703221351E+00
 O   7.671500520300E+00 -1.439901501210E+00  4.630697055220E+00
 O   7.671500520300E+00  1.439901501210E+00  4.630697055220E+00
 CE -7.920294672035E-17  0.000000000000E+00  2.853586890679E+00
 CE  0.000000000000E+00  5.424557954352E+00  2.853567821092E+00
 CE  0.000000000000E+00 -5.424557954352E+00  2.853567821092E+00
 CE  3.835788452397E+00  0.000000000000E+00  2.853648786736E+00
 CE -3.835788452397E+00  0.000000000000E+00  2.853648786736E+00
 CE  3.835778473953E+00  5.424582111943E+00  2.853610149160E+00
 CE -3.835778473953E+00 -5.424582111943E+00  2.853610149160E+00
 CE  3.835778473953E+00 -5.424582111943E+00  2.853610149160E+00
 CE -3.835778473953E+00  5.424582111943E+00  2.853610149160E+00
 CE  7.671500520300E+00  0.000000000000E+00  2.853642453965E+00
 CE  7.671500520300E+00  5.424606215857E+00  2.853644901394E+00
 CE  7.671500520300E+00 -5.424606215857E+00  2.853644901394E+00
 O   1.917891533586E+00  1.369209398853E+00  2.770699573685E+00
 O  -1.917891533586E+00 -1.369209398853E+00  2.770699573685E+00
 O   1.917891533586E+00 -1.369209398853E+00  2.770699573685E+00
 O  -1.917891533586E+00  1.369209398853E+00  2.770699573685E+00
 O   1.917882272231E+00  6.793783209767E+00  2.770686599140E+00
 O  -1.917882272231E+00 -6.793783209767E+00  2.770686599140E+00
 O   1.917882272231E+00 -6.793783209767E+00  2.770686599140E+00
 O  -1.917882272231E+00  6.793783209767E+00  2.770686599140E+00
 O   1.917896319796E+00 -4.055356045125E+00  2.770707044217E+00
 O  -1.917896319796E+00  4.055356045125E+00  2.770707044217E+00
 O   1.917896319796E+00  4.055356045125E+00  2.770707044217E+00
 O  -1.917896319796E+00 -4.055356045125E+00  2.770707044217E+00
 O   5.753639703672E+00  1.369235166279E+00  2.770696166715E+00
 O  -5.753639703672E+00 -1.369235166279E+00  2.770696166715E+00
 O   5.753639703672E+00 -1.369235166279E+00  2.770696166715E+00
 O  -5.753639703672E+00  1.369235166279E+00  2.770696166715E+00
 O   5.753631661068E+00  6.793797053325E+00  2.770724739361E+00
 O  -5.753631661068E+00 -6.793797053325E+00  2.770724739361E+00
 O   5.753631661068E+00 -6.793797053325E+00  2.770724739361E+00
 O  -5.753631661068E+00  6.793797053325E+00  2.770724739361E+00
 O   5.753645634389E+00 -4.055338308143E+00  2.770687507353E+00
 O  -5.753645634389E+00  4.055338308143E+00  2.770687507353E+00
 O   5.753645634389E+00  4.055338308143E+00  2.770687507353E+00
 O  -5.753645634389E+00 -4.055338308143E+00  2.770687507353E+00
 CE  1.917847055042E+00  2.712281124103E+00  8.109935866410E-01
 CE -1.917847055042E+00 -2.712281124103E+00  8.109935866410E-01
 CE  1.917847055042E+00 -2.712281124103E+00  8.109935866410E-01
 CE -1.917847055042E+00  2.712281124103E+00  8.109935866410E-01
 CE  1.917838486916E+00  8.136855059700E+00  8.109725027770E-01
 CE -1.917838486916E+00  8.136855059700E+00  8.109725027770E-01
 CE  5.753595593234E+00  2.712285194561E+00  8.109920155840E-01
 CE -5.753595593234E+00 -2.712285194561E+00  8.109920155840E-01
 CE  5.753595593234E+00 -2.712285194561E+00  8.109920155840E-01
 CE -5.753595593234E+00  2.712285194561E+00  8.109920155840E-01
 CE  5.753587597473E+00  8.136855059700E+00  8.109911002960E-01
 CE -5.753587597473E+00  8.136855059700E+00  8.109911002960E-01
 O   0.000000000000E+00  4.065776285292E+00  8.544087012950E-01
 O   0.000000000000E+00 -4.065776285292E+00  8.544087012950E-01
 O   0.000000000000E+00 -6.783362286416E+00  8.543878561150E-01
 O   0.000000000000E+00  6.783362286416E+00  8.543878561150E-01
 O   0.000000000000E+00 -1.358787771619E+00  8.544007159190E-01
 O   0.000000000000E+00  1.358787771619E+00  8.544007159190E-01
 O   3.835730841925E+00  4.065780334012E+00  8.544133598760E-01
 O  -3.835730841925E+00 -4.065780334012E+00  8.544133598760E-01
 O   3.835730841925E+00 -4.065780334012E+00  8.544133598760E-01
 O  -3.835730841925E+00  4.065780334012E+00  8.544133598760E-01
 O   3.835729880375E+00 -6.783360124060E+00  8.544069911870E-01
 O  -3.835729880375E+00  6.783360124060E+00  8.544069911870E-01
 O   3.835729880375E+00  6.783360124060E+00  8.544069911870E-01
 O  -3.835729880375E+00 -6.783360124060E+00  8.544069911870E-01
 O   3.835733574488E+00 -1.358787621202E+00  8.544135415540E-01
 O  -3.835733574488E+00  1.358787621202E+00  8.544135415540E-01
 O   3.835733574488E+00  1.358787621202E+00  8.544135415540E-01
 O  -3.835733574488E+00 -1.358787621202E+00  8.544135415540E-01
 O   7.671500520300E+00  4.065782045254E+00  8.544135920270E-01
 O   7.671500520300E+00 -4.065782045254E+00  8.544135920270E-01
 O   7.671500520300E+00 -6.783366801324E+00  8.544220757250E-01
 O   7.671500520300E+00  6.783366801324E+00  8.544220757250E-01
 O   7.671500520300E+00 -1.358791552164E+00  8.544130303400E-01
 O   7.671500520300E+00  1.358791552164E+00  8.544130303400E-01
 CE  2.870889593694E-17  0.000000000000E+00 -1.034346984346E+00
 CE  0.000000000000E+00  5.424563656061E+00 -1.034336938971E+00
 CE  0.000000000000E+00 -5.424563656061E+00 -1.034336938971E+00
 CE  3.835785481152E+00  0.000000000000E+00 -1.034323158340E+00
 CE -3.835785481152E+00  0.000000000000E+00 -1.034323158340E+00
 CE  3.835783094675E+00  5.424576005647E+00 -1.034328264169E+00
 CE -3.835783094675E+00 -5.424576005647E+00 -1.034328264169E+00
 CE  3.835783094675E+00 -5.424576005647E+00 -1.034328264169E+00
 CE -3.835783094675E+00  5.424576005647E+00 -1.034328264169E+00
 CE  7.671500520300E+00  0.000000000000E+00 -1.034318316544E+00
 CE  7.671500520300E+00  5.424588257941E+00 -1.034316172929E+00
 CE  7.671500520300E+00 -5.424588257941E+00 -1.034316172929E+00
 O   1.917894053423E+00  1.351763101012E+00 -1.065867280158E+00
 O  -1.917894053423E+00 -1.351763101012E+00 -1.065867280158E+00
 O   1.917894053423E+00 -1.351763101012E+00 -1.065867280158E+00
 O  -1.917894053423E+00  1.351763101012E+00 -1.065867280158E+00
 O   1.917886226928E+00  6.776334870285E+00 -1.065890056434E+00
 O  -1.917886226928E+00 -6.776334870285E+00 -1.065890056434E+00
 O   1.917886226928E+00 -6.776334870285E+00 -1.065890056434E+00
 O  -1.917886226928E+00  6.776334870285E+00 -1.065890056434E+00
 O   1.917899172038E+00 -4.072795429748E+00 -1.065855348857E+00
 O  -1.917899172038E+00  4.072795429748E+00 -1.065855348857E+00
 O   1.917899172038E+00  4.072795429748E+00 -1.065855348857E+00
 O  -1.917899172038E+00 -4.072795429748E+00 -1.065855348857E+00
 O   5.753643395619E+00  1.351776137235E+00 -1.065869423258E+00
 O  -5.753643395619E+00 -1.351776137235E+00 -1.065869423258E+00
 O   5.753643395619E+00 -1.351776137235E+00 -1.065869423258E+00
 O  -5.753643395619E+00  1.351776137235E+00 -1.065869423258E+00
 O   5.753635079127E+00  6.776341527260E+00 -1.065872262614E+00
 O  -5.753635079127E+00 -6.776341527260E+00 -1.065872262614E+00
 O   5.753635079127E+00 -6.776341527260E+00 -1.065872262614E+00
 O  -5.753635079127E+00  6.776341527260E+00 -1.065872262614E+00
 O   5.753648432970E+00 -4.072790219774E+00 -1.065868722660E+00
 O  -5.753648432970E+00  4.072790219774E+00 -1.065868722660E+00
 O   5.753648432970E+00  4.072790219774E+00 -1.065868722660E+00
 O  -5.753648432970E+00 -4.072790219774E+00 -1.065868722660E+00
 CE  1.917834255161E+00  2.712276559176E+00 -3.038213603638E+00
 CE -1.917834255161E+00 -2.712276559176E+00 -3.038213603638E+00
 CE  1.917834255161E+00 -2.712276559176E+00 -3.038213603638E+00
 CE -1.917834255161E+00  2.712276559176E+00 -3.038213603638E+00
 CE  1.917822040590E+00  8.136855059700E+00 -3.038318956539E+00
 CE -1.917822040590E+00  8.136855059700E+00 -3.038318956539E+00
 CE  5.753584345844E+00  2.712278948430E+00 -3.038218554163E+00
 CE -5.753584345844E+00 -2.712278948430E+00 -3.038218554163E+00
 CE  5.753584345844E+00 -2.712278948430E+00 -3.038218554163E+00
 CE -5.753584345844E+00  2.712278948430E+00 -3.038218554163E+00
 CE  5.753572432547E+00  8.136855059700E+00 -3.038316272786E+00
 CE -5.753572432547E+00  8.136855059700E+00 -3.038316272786E+00
 O   0.000000000000E+00 -1.314807665580E+00 -3.015812149916E+00
 O   0.000000000000E+00  1.314807665580E+00 -3.015812149916E+00
 O   0.000000000000E+00  4.109768716238E+00 -3.015782840771E+00
 O   0.000000000000E+00 -4.109768716238E+00 -3.015782840771E+00
 O   0.000000000000E+00 -6.739333375149E+00 -3.015714083463E+00
 O   0.000000000000E+00  6.739333375149E+00 -3.015714083463E+00
 O   3.835738384996E+00 -1.314820093222E+00 -3.015796585486E+00
 O  -3.835738384996E+00  1.314820093222E+00 -3.015796585486E+00
 O   3.835738384996E+00  1.314820093222E+00 -3.015796585486E+00
 O  -3.835738384996E+00 -1.314820093222E+00 -3.015796585486E+00
 O   3.835738715484E+00  4.109761272038E+00 -3.015801835661E+00
 O  -3.835738715484E+00 -4.109761272038E+00 -3.015801835661E+00
 O   3.835738715484E+00 -4.109761272038E+00 -3.015801835661E+00
 O  -3.835738715484E+00  4.109761272038E+00 -3.015801835661E+00
 O   3.835751901823E+00 -6.739374805214E+00 -3.015709780304E+00
 O  -3.835751901823E+00  6.739374805214E+00 -3.015709780304E+00
 O   3.835751901823E+00  6.739374805214E+00 -3.015709780304E+00
 O  -3.835751901823E+00 -6.739374805214E+00 -3.015709780304E+00
 O   7.671500520300E+00 -1.314829136678E+00 -3.015786858678E+00
 O   7.671500520300E+00  1.314829136678E+00 -3.015786858678E+00
 O   7.671500520300E+00  4.109756754133E+00 -3.015822017033E+00
 O   7.671500520300E+00 -4.109756754133E+00 -3.015822017033E+00
 O   7.671500520300E+00 -6.739413352148E+00 -3.015706449711E+00
 O   7.671500520300E+00  6.739413352148E+00 -3.015706449711E+00
 CE  1.330793204864E-16  0.000000000000E+00 -4.794687825205E+00
 CE  0.000000000000E+00  5.424570039800E+00 -4.794687825205E+00
 CE  0.000000000000E+00 -5.424570039800E+00 -4.794687825205E+00
 CE  3.835750260160E+00  0.000000000000E+00 -4.794687825205E+00
 CE -3.835750260160E+00  0.000000000000E+00 -4.794687825205E+00
 CE  3.835750260160E+00  5.424570039800E+00 -4.794687825205E+00
 CE -3.835750260160E+00 -5.424570039800E+00 -4.794687825205E+00
 CE  3.835750260160E+00 -5.424570039800E+00 -4.794687825205E+00
 CE -3.835750260160E+00  5.424570039800E+00 -4.794687825205E+00
 CE  7.671500520300E+00  0.000000000000E+00 -4.794687825205E+00
 CE  7.671500520300E+00  5.424570039800E+00 -4.794687825205E+00
 CE  7.671500520300E+00 -5.424570039800E+00 -4.794687825205E+00
 O   1.917875130080E+00  1.356142509950E+00 -4.794687825205E+00
 O  -1.917875130080E+00 -1.356142509950E+00 -4.794687825205E+00
 O   1.917875130080E+00 -1.356142509950E+00 -4.794687825205E+00
 O  -1.917875130080E+00  1.356142509950E+00 -4.794687825205E+00
 O   1.917875130080E+00  6.780712549750E+00 -4.794687825205E+00
 O  -1.917875130080E+00 -6.780712549750E+00 -4.794687825205E+00
 O   1.917875130080E+00 -6.780712549750E+00 -4.794687825205E+00
 O  -1.917875130080E+00  6.780712549750E+00 -4.794687825205E+00
 O   1.917875130080E+00 -4.068427529850E+00 -4.794687825205E+00
 O  -1.917875130080E+00  4.068427529850E+00 -4.794687825205E+00
 O   1.917875130080E+00  4.068427529850E+00 -4.794687825205E+00
 O  -1.917875130080E+00 -4.068427529850E+00 -4.794687825205E+00
 O   5.753625390240E+00  1.356142509950E+00 -4.794687825205E+00
 O  -5.753625390240E+00 -1.356142509950E+00 -4.794687825205E+00
 O   5.753625390240E+00 -1.356142509950E+00 -4.794687825205E+00
 O  -5.753625390240E+00  1.356142509950E+00 -4.794687825205E+00
 O   5.753625390240E+00  6.780712549750E+00 -4.794687825205E+00
 O  -5.753625390240E+00 -6.780712549750E+00 -4.794687825205E+00
 O   5.753625390240E+00 -6.780712549750E+00 -4.794687825205E+00
 O  -5.753625390240E+00  6.780712549750E+00 -4.794687825205E+00
 O   5.753625390240E+00 -4.068427529850E+00 -4.794687825205E+00
 O  -5.753625390240E+00  4.068427529850E+00 -4.794687825205E+00
 O   5.753625390240E+00  4.068427529850E+00 -4.794687825205E+00
 O  -5.753625390240E+00 -4.068427529850E+00 -4.794687825205E+00
 O   2.298197439869E+01  9.680579201626E+00  8.343400000000E+00
 C   2.297783178841E+01  1.175043239171E+01  6.969600000000E+00
 C   2.299961884989E+01  1.024104577814E+01  6.966400000000E+00
 H   2.299256106941E+01  1.208632176858E+01  5.923400000000E+00
 H   2.390270789114E+01  9.864146651773E+00  6.470200000000E+00
 H   2.680406938792E+01  8.146782022873E+00  6.339200000000E+00
 H   2.560746873676E+01  9.065432959113E+00  8.369800000000E+00
 H   2.385238284773E+01  1.214881281544E+01  7.494000000000E+00
 H   2.212675552069E+01  9.838596926886E+00  6.437000000000E+00
 H   1.928293027782E+01  8.038887324781E+00  6.199000000000E+00
 H   2.037596567195E+01  8.990411155463E+00  8.272200000000E+00
 H   2.207320844706E+01  1.212326309055E+01  7.460800000000E+00
 SI  2.300836436048E+01  8.010733806275E+00  8.212600000000E+00
 O   2.439307020440E+01  7.648481019017E+00  7.408000000000E+00
 O   2.299731739973E+01  7.023733287533E+00  9.566000000000E+00
 C   2.680575711803E+01  7.609749588933E+00  7.293600000000E+00
 C   2.301895103120E+01  4.633938956499E+00  1.024440000000E+01
 C   2.560685501672E+01  7.990391668625E+00  8.135800000000E+00
 C   2.302631567170E+01  5.613616305687E+00  9.096000000000E+00
 H   2.304135181272E+01  3.621063238668E+00  9.818800000000E+00
 H   2.392802384286E+01  5.490261582982E+00  8.482800000000E+00
 H   2.772817834059E+01  7.862968518390E+00  7.832200000000E+00
 H   2.681342861855E+01  6.535521983951E+00  7.080600000000E+00
 H   2.561667453739E+01  7.468819259299E+00  9.104600000000E+00
 H   2.389503639062E+01  4.781378770181E+00  1.088420000000E+01
 O   2.166569833942E+01  7.609261377629E+00  7.357000000000E+00
 C   1.926114321634E+01  7.501529416639E+00  7.152800000000E+00
 C   2.041631776468E+01  7.915858076279E+00  8.039000000000E+00
 H   2.215207147241E+01  5.464874595196E+00  8.449800000000E+00
 H   1.831217860198E+01  7.727896724399E+00  7.656800000000E+00
 H   1.929213607844E+01  6.427627285859E+00  6.940400000000E+00
 H   2.038517147257E+01  7.393797455648E+00  9.007000000000E+00
 H   2.211586198995E+01  4.755829045293E+00  1.085100000000E+01
