  224
CERIA 110-LY7-TEOS-2CH3                 
 O   1.638092771962E+00  2.734429315017E+00  3.956750344677E+00
 O  -1.635723100677E+00 -1.060702232004E+00  3.954757807759E+00
 O   2.163898337906E+00 -1.108456090545E+00  3.969592462583E+00
 O  -2.150584430729E+00  2.762714174861E+00  3.985967009798E+00
 O   2.119590195815E+00  6.466133109961E+00  3.981599996223E+00
 O  -1.659172061452E+00 -5.080909978575E+00  4.024124047550E+00
 O   2.130524854027E+00 -5.049108120013E+00  3.998387857637E+00
 O  -1.533687008135E+00  6.435429774795E+00  4.040499945843E+00
 O   5.370066756914E+00  2.705531010771E+00  3.975967618509E+00
 O  -5.406572726517E+00 -1.161462636064E+00  4.036883022542E+00
 O   6.010331438953E+00 -1.113877345053E+00  3.995401734895E+00
 O  -6.943223279460E+00  3.558486237167E+00  4.037667389019E+00
 O   5.829584171388E+00  6.271333109677E+00  4.055795429257E+00
 O  -5.523610901610E+00 -5.711892282216E+00  4.161127189154E+00
 O   5.927526099279E+00 -5.222842023502E+00  4.056232906217E+00
 CE  1.626032108000E-02  1.973207284292E+00  3.025991724112E+00
 CE  1.542715259500E-02 -1.840067903174E+00  3.046947685453E+00
 CE  9.513980978000E-02  5.784586365822E+00  3.057585146554E+00
 CE  1.247764865600E-02 -5.710582153741E+00  3.075684985864E+00
 CE  3.757146992186E+00  1.972462301251E+00  3.027241281921E+00
 CE -3.795017208640E+00 -1.822033641137E+00  3.055821704953E+00
 CE  3.824405556611E+00 -1.838935089155E+00  3.048924019657E+00
 CE -3.693704594519E+00  1.950032604539E+00  2.988123403218E+00
 CE  3.811748030901E+00  5.772912098729E+00  3.050767852917E+00
 CE -3.819397370225E+00 -5.719870275297E+00  3.062023893480E+00
 CE  3.826853952426E+00 -5.708993932074E+00  3.072751253616E+00
 CE -3.588809702487E+00  5.722117597412E+00  3.052977970339E+00
 CE  7.484341590092E+00  2.059691448973E+00  3.072770101392E+00
 CE  7.654600571928E+00 -1.799895632560E+00  3.046452678858E+00
 CE  7.488458658262E+00  5.643256686296E+00  3.038227745577E+00
 CE  7.644133732967E+00 -5.733543194818E+00  3.066456911117E+00
 O   1.912695648804E+00  1.864655738317E+00  1.605965847811E+00
 O  -1.895213529301E+00 -1.960170352333E+00  1.618112303361E+00
 O   1.926573155382E+00 -1.963188836947E+00  1.621465327402E+00
 O  -1.879611822605E+00  1.855286544868E+00  1.633650987654E+00
 O   1.910309774372E+00  5.712087381800E+00  1.585677558558E+00
 O  -1.907821445555E+00 -5.783876047117E+00  1.611863683979E+00
 O   1.935559153148E+00 -5.783650557491E+00  1.603431500042E+00
 O  -1.883202841175E+00  5.704473041819E+00  1.606663882387E+00
 O   5.687134018482E+00  1.869686068685E+00  1.619919356228E+00
 O  -5.758488221889E+00 -1.913070367208E+00  1.642418352308E+00
 O   5.764755483251E+00 -1.942990079478E+00  1.630037268731E+00
 O  -5.723487357947E+00  1.906844910216E+00  1.958579551093E+00
 O   5.679353950018E+00  5.707576279203E+00  1.609269065010E+00
 O  -5.764303451804E+00 -5.725001004586E+00  1.648126411971E+00
 O   5.762913662375E+00 -5.770323702183E+00  1.602629415267E+00
 O  -5.787990764833E+00  5.758854503961E+00  2.049353347257E+00
 O   4.909269831500E-02 -2.603236440000E-03  1.883593146286E+00
 O  -1.219291111500E-02  3.811018844751E+00  1.872663429904E+00
 O   2.304150771700E-02 -3.825589973968E+00  1.946703824034E+00
 O   4.037392082700E-02  7.681496352182E+00  1.920847827465E+00
 O   3.845207141995E+00 -1.182238334800E-02  1.892967425583E+00
 O  -3.767475050651E+00  1.854361351900E-02  1.878377385044E+00
 O   3.762211140591E+00  3.823834036627E+00  1.868217683124E+00
 O  -3.840482872666E+00 -3.808813112665E+00  2.001028454953E+00
 O   3.865895534041E+00 -3.816984827689E+00  1.955894121867E+00
 O  -3.773378216352E+00  3.801202078171E+00  1.883809390009E+00
 O   3.849748128544E+00  7.677950576186E+00  1.943824160042E+00
 O  -3.784018264410E+00  7.666187484157E+00  2.015070884741E+00
 O   7.678538424009E+00  4.343549425400E-02  1.904514795698E+00
 O   7.491573837701E+00  3.822332600811E+00  1.712957797500E+00
 O   7.687237613674E+00 -3.799827611402E+00  2.024009466483E+00
 O   7.628865354131E+00  7.648583341983E+00  2.015362091920E+00
 CE  1.922988967393E+00 -9.398911395000E-03  4.187275058400E-01
 CE -1.892540485890E+00 -1.793772489000E-02  4.085410616480E-01
 CE  1.910005943229E+00  3.836396491324E+00  4.091053852790E-01
 CE -1.909578658195E+00 -3.839837786281E+00  4.531693056720E-01
 CE  1.918684974468E+00 -3.838332649775E+00  4.502765015930E-01
 CE -1.885053010469E+00  3.835038130849E+00  3.925114707930E-01
 CE  1.922327221258E+00  7.682132472248E+00  4.395736052970E-01
 CE -1.893722630590E+00  7.677092544810E+00  4.460439435440E-01
 CE  5.745187038317E+00  7.571928997000E-03  4.319886816500E-01
 CE -5.756775350345E+00  3.840013270900E-02  4.854894266460E-01
 CE  5.702623955866E+00  3.826791966431E+00  3.778620170800E-01
 CE -5.756349169196E+00 -3.823021204230E+00  4.660917587950E-01
 CE  5.750454476729E+00 -3.829111559598E+00  4.568290585590E-01
 CE -5.764186006203E+00  3.851239916847E+00  5.237751110490E-01
 CE  5.740283211386E+00  7.672886994127E+00  4.497562765040E-01
 CE -5.756218897201E+00  7.644454209655E+00  5.345612358540E-01
 O   7.844556986000E-03 -1.433673390300E-02 -7.937407639340E-01
 O   7.618614561000E-03  3.835342553697E+00 -8.082813531730E-01
 O  -7.794502860000E-04 -3.835061244979E+00 -7.617976173520E-01
 O   5.752323387000E-03  7.680819168928E+00 -7.754645130030E-01
 O   3.831721269262E+00 -8.700414291000E-03 -7.875372594490E-01
 O  -3.832583856039E+00 -3.041355018000E-03 -7.698898821030E-01
 O   3.802142674311E+00  3.830309288235E+00 -8.181249831190E-01
 O  -3.834050130248E+00 -3.829293539352E+00 -7.399721081310E-01
 O   3.839783346890E+00 -3.832594810070E+00 -7.585564548430E-01
 O  -3.807922338443E+00  3.833712766179E+00 -7.925767833240E-01
 O   3.833409518979E+00  7.684163379887E+00 -7.692921708940E-01
 O  -3.818190473831E+00  7.674229585083E+00 -7.365659403600E-01
 O   7.677948157029E+00  5.190448450000E-04 -7.642653676590E-01
 O   7.640984695198E+00  3.832481102323E+00 -8.516396547230E-01
 O   7.673674431568E+00 -3.826232327588E+00 -7.368106719320E-01
 O   7.656399557158E+00  7.675878050732E+00 -7.370936999760E-01
 O   1.911141746298E+00  1.901185590597E+00 -9.642533033200E-01
 O  -1.913337052907E+00 -1.924876530901E+00 -9.551784630260E-01
 O   1.919332263693E+00 -1.930619054790E+00 -9.567038861650E-01
 O  -1.907272627544E+00  1.899814949564E+00 -9.500218624120E-01
 O   1.915880069996E+00  5.763061757965E+00 -9.705537626610E-01
 O  -1.912563701559E+00 -5.747341222262E+00 -9.518267893880E-01
 O   1.917315583837E+00 -5.745812722698E+00 -9.612597291380E-01
 O  -1.906562076247E+00  5.761417903539E+00 -9.589393551210E-01
 O   5.737965314199E+00  1.896416355087E+00 -9.643497979860E-01
 O  -5.753102598180E+00 -1.901631871673E+00 -9.321661427980E-01
 O   5.753404120817E+00 -1.918938874331E+00 -9.499109504280E-01
 O  -5.751309522393E+00  1.894400926919E+00 -8.387605239780E-01
 O   5.737085427553E+00  5.764278384604E+00 -9.631073262350E-01
 O  -5.752451180795E+00 -5.742668480655E+00 -9.381801378490E-01
 O   5.751309970498E+00 -5.743184754549E+00 -9.567374704140E-01
 O  -5.751294073736E+00  5.767357734205E+00 -8.332091260070E-01
 CE  1.751329533000E-03  1.911560115269E+00 -2.188500384199E+00
 CE  2.548050111000E-03 -1.928014215631E+00 -2.176987843787E+00
 CE  1.223953645000E-03  5.764149329846E+00 -2.183179758338E+00
 CE -8.735638180000E-04 -5.750850754065E+00 -2.170539949974E+00
 CE  3.830206668823E+00  1.909738200301E+00 -2.189647063132E+00
 CE -3.844250241735E+00 -1.916356449864E+00 -2.161504565935E+00
 CE  3.840277545062E+00 -1.925237115457E+00 -2.170792173561E+00
 CE -3.847595508920E+00  1.925131538964E+00 -2.152409134717E+00
 CE  3.831801464097E+00  5.764723458300E+00 -2.184681906948E+00
 CE -3.845738110661E+00 -5.760447058565E+00 -2.148712680762E+00
 CE  3.840488867603E+00 -5.750087580167E+00 -2.167681759094E+00
 CE -3.849167030529E+00  5.754964159415E+00 -2.143313458696E+00
 CE  7.679601052814E+00  1.928162400691E+00 -2.156409378855E+00
 CE  7.677384212923E+00 -1.913325842768E+00 -2.158180608029E+00
 CE  7.680455077556E+00  5.752894378151E+00 -2.146911712650E+00
 CE  7.681115733033E+00 -5.760126922548E+00 -2.148841984092E+00
 O   1.915071614425E+00  1.915535317089E+00 -3.620954186051E+00
 O  -1.915642690848E+00 -1.917981155979E+00 -3.614143444865E+00
 O   1.917115092566E+00 -1.919692074259E+00 -3.615037921636E+00
 O  -1.917694255109E+00  1.916706710143E+00 -3.611873687348E+00
 O   1.916789339410E+00  5.754758207413E+00 -3.622935719729E+00
 O  -1.915132127043E+00 -5.753741476699E+00 -3.612082589225E+00
 O   1.915632328212E+00 -5.753071678003E+00 -3.616849776233E+00
 O  -1.918801642373E+00  5.753461382468E+00 -3.615052781772E+00
 O   5.750349584451E+00  1.917337292082E+00 -3.618612575890E+00
 O  -5.752947766201E+00 -1.916139954377E+00 -3.608148722388E+00
 O   5.751558471579E+00 -1.923536820285E+00 -3.610784027830E+00
 O  -5.749580357067E+00  1.920327887821E+00 -3.580269970512E+00
 O   5.749155023352E+00  5.761541353193E+00 -3.616267465902E+00
 O  -5.752989915533E+00 -5.756428782881E+00 -3.609994353589E+00
 O   5.750000166986E+00 -5.753642288578E+00 -3.614149802750E+00
 O  -5.752918734428E+00  5.749500912788E+00 -3.575302835152E+00
 O   0.000000000000E+00  0.000000000000E+00 -3.390356274875E+00
 O   0.000000000000E+00  3.835750260159E+00 -3.390356274875E+00
 O   0.000000000000E+00 -3.835750260159E+00 -3.390356274875E+00
 O   0.000000000000E+00  7.671500520300E+00 -3.390356274875E+00
 O   3.835750260161E+00  0.000000000000E+00 -3.390356274875E+00
 O  -3.835750260161E+00  0.000000000000E+00 -3.390356274875E+00
 O   3.835750260161E+00  3.835750260159E+00 -3.390356274875E+00
 O  -3.835750260161E+00 -3.835750260159E+00 -3.390356274875E+00
 O   3.835750260161E+00 -3.835750260159E+00 -3.390356274875E+00
 O  -3.835750260161E+00  3.835750260159E+00 -3.390356274875E+00
 O   3.835750260161E+00  7.671500520300E+00 -3.390356274875E+00
 O  -3.835750260161E+00  7.671500520300E+00 -3.390356274875E+00
 O   7.671500520300E+00  0.000000000000E+00 -3.390356274875E+00
 O   7.671500520300E+00  3.835750260159E+00 -3.390356274875E+00
 O   7.671500520300E+00 -3.835750260159E+00 -3.390356274875E+00
 O   7.671500520300E+00  7.671500520300E+00 -3.390356274875E+00
 CE  1.917875130081E+00  0.000000000000E+00 -4.746498784825E+00
 CE -1.917875130081E+00  0.000000000000E+00 -4.746498784825E+00
 CE  1.917875130081E+00  3.835750260159E+00 -4.746498784825E+00
 CE -1.917875130081E+00 -3.835750260159E+00 -4.746498784825E+00
 CE  1.917875130081E+00 -3.835750260159E+00 -4.746498784825E+00
 CE -1.917875130081E+00  3.835750260159E+00 -4.746498784825E+00
 CE  1.917875130081E+00  7.671500520300E+00 -4.746498784825E+00
 CE -1.917875130081E+00  7.671500520300E+00 -4.746498784825E+00
 CE  5.753625390240E+00  0.000000000000E+00 -4.746498784825E+00
 CE -5.753625390240E+00  0.000000000000E+00 -4.746498784825E+00
 CE  5.753625390240E+00  3.835750260159E+00 -4.746498784825E+00
 CE -5.753625390240E+00 -3.835750260159E+00 -4.746498784825E+00
 CE  5.753625390240E+00 -3.835750260159E+00 -4.746498784825E+00
 CE -5.753625390240E+00  3.835750260159E+00 -4.746498784825E+00
 CE  5.753625390240E+00  7.671500520300E+00 -4.746498784825E+00
 CE -5.753625390240E+00  7.671500520300E+00 -4.746498784825E+00
 O   0.000000000000E+00  0.000000000000E+00 -6.100000000000E+00
 O   0.000000000000E+00  3.835750260159E+00 -6.100000000000E+00
 O   0.000000000000E+00 -3.835750260159E+00 -6.100000000000E+00
 O   0.000000000000E+00  7.671500520300E+00 -6.100000000000E+00
 O   3.835750260161E+00  0.000000000000E+00 -6.100000000000E+00
 O  -3.835750260161E+00  0.000000000000E+00 -6.100000000000E+00
 O   3.835750260161E+00  3.835750260159E+00 -6.100000000000E+00
 O  -3.835750260161E+00 -3.835750260159E+00 -6.100000000000E+00
 O   3.835750260161E+00 -3.835750260159E+00 -6.100000000000E+00
 O  -3.835750260161E+00  3.835750260159E+00 -6.100000000000E+00
 O   3.835750260161E+00  7.671500520300E+00 -6.100000000000E+00
 O  -3.835750260161E+00  7.671500520300E+00 -6.100000000000E+00
 O   7.671500520300E+00  0.000000000000E+00 -6.100000000000E+00
 O   7.671500520300E+00  3.835750260159E+00 -6.100000000000E+00
 O   7.671500520300E+00 -3.835750260159E+00 -6.100000000000E+00
 O   7.671500520300E+00  7.671500520300E+00 -6.100000000000E+00
 C   2.668301310971E+01  1.783516469962E+01  8.097000000000E+00
 H   2.619648654671E+01  1.689525245588E+01  7.817200000000E+00
 H   2.658819336328E+01  1.795622097783E+01  9.182800000000E+00
 C   2.675451149456E+01  2.433307907033E+01  5.769600000000E+00
 C   2.712780670987E+01  2.565518547000E+01  6.408600000000E+00
 H   2.645992587458E+01  2.585848023379E+01  7.252400000000E+00
 H   2.701027932190E+01  2.647342771549E+01  5.695600000000E+00
 H   2.672489950255E+01  2.350517073418E+01  6.488800000000E+00
 H   2.579158474925E+01  2.436867483274E+01  5.259000000000E+00
 H   2.703482812357E+01  2.186607793301E+01  8.009800000000E+00
 O   2.614723551337E+01  1.881727019623E+01  5.959600000000E+00
 C   2.602832725531E+01  1.898681035773E+01  7.352600000000E+00
 H   2.496076124290E+01  1.908592614445E+01  7.619200000000E+00
 H   2.650303970750E+01  1.994267932256E+01  7.649200000000E+00
 H   2.774060617144E+01  1.776289916472E+01  7.833000000000E+00
 SI  2.912362428524E+01  2.310349096694E+01  5.096400000000E+00
 O   2.773431554101E+01  2.398341207661E+01  4.719600000000E+00
 O   2.923071843250E+01  2.264304750571E+01  6.633800000000E+00
 O   3.050127234867E+01  2.397129110579E+01  4.650400000000E+00
 C   3.153048085847E+01  2.433630110055E+01  5.644000000000E+00
 C   2.890099734014E+01  2.295251583670E+01  7.981600000000E+00
 C   3.108323237814E+01  2.554977905285E+01  6.429800000000E+00
 C   2.798962307832E+01  2.187282885347E+01  8.538600000000E+00
 H   3.190592409394E+01  2.592322769818E+01  7.047000000000E+00
 H   2.780581392586E+01  2.204958022546E+01  9.600200000000E+00
 H   2.816161811999E+01  2.566024866034E+01  6.769400000000E+00
 H   2.843809899874E+01  2.087829552602E+01  8.424400000000E+00
 H   2.984183016395E+01  2.299639681967E+01  8.546200000000E+00
 H   2.843518382854E+01  2.394551486404E+01  8.044000000000E+00
 H   3.171490373098E+01  2.345806772098E+01  6.269000000000E+00
 H   3.243188216961E+01  2.455064282508E+01  5.063800000000E+00
 H   3.024320307117E+01  2.531042823662E+01  7.087600000000E+00
 H   3.076241022638E+01  2.634500679678E+01  5.754400000000E+00
